[General]
include ../standalone/omnetpp.ini

[Config FeedbackSmokeBase]
extends = Standalone
sim-time-limit = 200ms

output-scalar-file = ${resultdir}/${configname}/${repetition}.sca
output-vector-file = ${resultdir}/${configname}/${repetition}.vec

*.configurator.config = xmldoc("../standalone/demo.xml")

*.ue[*].cellularNic.nrChannelModel[0].collectSinrStatistics = true

*.ue[*].cellularNic.nrPhy.enableHandover = false
*.gnb.cellularNic.phy.enableHandover = false

*.ue[*].mobility.initialX = 450m
*.ue[*].mobility.initialY = 350m

**.vector-recording = false



[Config RsBasedFeedbackSmoke]
description = "Smoke test for UE-computed DL feedback plus e/gNB-computed UL feedback in NR standalone"
extends = FeedbackSmokeBase

# enable local CSI computation (based on CSI RS)
*.ue[*].cellularNic.nrDlFbGen.computeCsiLocally = true

# enable transmission of CSI RS at the gNB
*.gnb.cellularNic.phy.csiRsPeriod = 10tti

# enable transmission of SRS
*.gnb.cellularNic.phy.srsPeriod = 10tti

**.measuredSinrUl.vector-recording = true
