[General]
sim-time-limit=20s
**.routingRecorder.enabled = false

############### Statistics ##################
output-scalar-file = ${resultdir}/${configname}/${repetition}.sca
output-vector-file = ${resultdir}/${configname}/${repetition}.vec
seed-set = ${repetition}
**.vector-recording = true

################ Mobility parameters #####################
# *

**.mobility.constraintAreaMaxX = 1000m
**.mobility.constraintAreaMaxY = 1000m
**.mobility.constraintAreaMinX = 0m
**.mobility.constraintAreaMinY = 0m
**.mobility.constraintAreaMinZ = 0m
**.mobility.constraintAreaMaxZ = 0m
**.mobility.initFromDisplayString = false

############### Number of Resource Blocks ################
**.numBands = 50 # this value should be kept equal to the number of RBs

############### Transmission Power ##################
**.ueTxPower = 26dBm
**.eNodeBTxPower = 40dBm
**.targetBler = 0.01
**.blerShift = 5

############### IPv4 configurator config #################
*.configurator.config = xmldoc("./demo.xml")


#------------------------------------#
# Config Standalone
#
# Topology configuration for the exemplary scenario for NR Standalone deployment
#
[Config Standalone]
network = simu5g.simulations.nr.networks.SingleCell_Standalone_Drb
sim-time-limit=20s

############### e/gNodeB configuration #################
*.gnb.mobility.initialX = 450m
*.gnb.mobility.initialY = 300m
# gNB: 2 DRBs per UE * 2 UEs = 4 total DRB instances
# DRB 0,1 -> ue[0]; DRB 2,3 -> ue[1]
# QFI 1,2 -> DRB 0 (Voice/Video); QFI 3,4 -> DRB 1 (Gaming/URLLC)
*.gnb.cellularNic.numDrbs = 4
# SDAP: QFI-to-DRB routing
*.gnb.cellularNic.sdap.drbConfig = [
    {"drb": 0, "ue": 2049, "qfiList": [1, 2]},
    {"drb": 1, "ue": 2049, "qfiList": [3, 4]},
    {"drb": 2, "ue": 2050, "qfiList": [1, 2]},
    {"drb": 3, "ue": 2050, "qfiList": [3, 4]}
    ]
# MAC: DRB QoS parameters (for scheduler)
*.gnb.cellularNic.mac.drbQosConfig = [
    {"drb": 0, "ue": 2049, "gbr": true, "delayBudget": 100, "per": 1e-2, "priority": 2},
    {"drb": 1, "ue": 2049, "gbr": true, "delayBudget": 50,  "per": 1e-3, "priority": 1},
    {"drb": 2, "ue": 2050, "gbr": true, "delayBudget": 100, "per": 1e-2, "priority": 2},
    {"drb": 3, "ue": 2050, "gbr": true, "delayBudget": 50,  "per": 1e-3, "priority": 1}
    ]
*.gnb.cellularNic.mac.schedulingDisciplineDl = "QOS_PF"
*.gnb.cellularNic.mac.schedulingDisciplineUl = "QOS_PF"

############## UE configuration ##################
*.numUe = 2

# connect the UE's NIC to the corresponding serving gNB (NR side only)
*.ue[*].cellularNic.nrPhy.dynamicCellAssociation = false
*.ue[*].macCellId = 0
*.ue[*].masterId = 0
*.ue[*].nrMacCellId = 1
*.ue[*].nrMasterId = 1

# UE positions
*.ue[0].mobility.initialX = 350m
*.ue[0].mobility.initialY = 400m
*.ue[1].mobility.initialX = 550m
*.ue[1].mobility.initialY = 400m

# UE: 2 DRBs each (local indices 0,1)
*.ue[*].cellularNic.numDrbs = 2
*.ue[*].cellularNic.sdap.drbConfig = [
    {"drb": 0, "qfiList": [1, 2]},
    {"drb": 1, "qfiList": [3, 4]}
    ]

**.sdap.addSdapHeader = false  #TEMP HACK

#------------------------------------#
# Config VoIP-DL
#
# General configuration for Voice-over-IP DL traffic to the UE
#
[Config VoIP-DL]
extends=Standalone

# multiple UDP applications for each UE
*.ue[*].numApps = 4

# the amount of UDP applications on server should be equal to (numUEs)*(ue[*].numApps)
*.server.numApps = 8

#============= Application Setup =============
*.ue[*].app[*].typename = "VoipReceiver"
*.ue[*].app[0].localPort = 3000
*.ue[*].app[1].localPort = 3001
*.ue[*].app[2].localPort = 3002
*.ue[*].app[3].localPort = 3003

*.server.app[*].packetSize = 40B
*.server.app[*].typename = "VoipSender"

*.server.app[0..3].destAddress = "ue[0]"
*.server.app[0].localPort = 3088+ancestorIndex(0)
*.server.app[1].localPort = 3089+ancestorIndex(0)
*.server.app[2].localPort = 3090+ancestorIndex(0)
*.server.app[3].localPort = 3091+ancestorIndex(0)

*.server.app[4..7].destAddress = "ue[1]"
*.server.app[4].localPort = 3092+ancestorIndex(0)
*.server.app[5].localPort = 3093+ancestorIndex(0)
*.server.app[6].localPort = 3094+ancestorIndex(0)
*.server.app[7].localPort = 3095+ancestorIndex(0)

*.server.app[0].destPort = 3000
*.server.app[1].destPort = 3001
*.server.app[2].destPort = 3002
*.server.app[3].destPort = 3003
*.server.app[4].destPort = 3000
*.server.app[5].destPort = 3001
*.server.app[6].destPort = 3002
*.server.app[7].destPort = 3003

*.server.app[0..3].startTime = uniform(0s,0.02s)
*.server.app[4..7].startTime = uniform(0.03s, 0.05s)

#------------------------------------#
# Config VoIP-DL-MultiQfi
#
# Same as VoIP-DL but each app uses a different QFI (and thus a different DRB).
# Apps 0..3 use QFI 1..4 respectively, same for both UEs.
#
[Config VoIP-DL-MultiQfi]
extends=VoIP-DL

# DSCP is extracted by TrafficFlowFilter as QFI, then carried in GTP-U to SDAP
*.server.app[0].dscp = 1    # QFI 1 (Voice)
*.server.app[1].dscp = 2    # QFI 2 (Video)
*.server.app[2].dscp = 3    # QFI 3 (Gaming)
*.server.app[3].dscp = 4    # QFI 4 (URLLC)
*.server.app[4].dscp = 1    # QFI 1 (Voice)
*.server.app[5].dscp = 2    # QFI 2 (Video)
*.server.app[6].dscp = 3    # QFI 3 (Gaming)
*.server.app[7].dscp = 4    # QFI 4 (URLLC)

#------------------------------------#
# Config VoIP-UL
#
# General configuration for Voice-over-IP UL traffic from the UE
#
[Config VoIP-UL]
extends=Standalone

# multiple UDP applications for each UE
*.ue[*].numApps = 4

# the amount of UDP applications on server should be equal to (numUEs)*(ue[*].numApps)
*.server.numApps = 8

#============= Application Setup =============
# Server: 8 VoipReceiver apps (4 per UE)
*.server.app[*].typename = "VoipReceiver"
*.server.app[0].localPort = 3000
*.server.app[1].localPort = 3001
*.server.app[2].localPort = 3002
*.server.app[3].localPort = 3003
*.server.app[4].localPort = 3004
*.server.app[5].localPort = 3005
*.server.app[6].localPort = 3006
*.server.app[7].localPort = 3007

# UE: 4 VoipSender apps each
*.ue[*].app[*].typename = "VoipSender"
*.ue[*].app[*].packetSize = 40B
*.ue[*].app[*].destAddress = "server"
*.ue[*].app[*].startTime = uniform(0s,0.02s)

# ue[0] apps 0..3 → server apps 0..3 (ports 3000..3003)
*.ue[0].app[0].localPort = 3088
*.ue[0].app[1].localPort = 3089
*.ue[0].app[2].localPort = 3090
*.ue[0].app[3].localPort = 3091
*.ue[0].app[0].destPort = 3000
*.ue[0].app[1].destPort = 3001
*.ue[0].app[2].destPort = 3002
*.ue[0].app[3].destPort = 3003

# ue[1] apps 0..3 → server apps 4..7 (ports 3004..3007)
*.ue[1].app[0].localPort = 3092
*.ue[1].app[1].localPort = 3093
*.ue[1].app[2].localPort = 3094
*.ue[1].app[3].localPort = 3095
*.ue[1].app[0].destPort = 3004
*.ue[1].app[1].destPort = 3005
*.ue[1].app[2].destPort = 3006
*.ue[1].app[3].destPort = 3007

# DSCP → QFI mapping: apps 0..3 use QFI 1..4
*.ue[*].app[0].dscp = 1
*.ue[*].app[1].dscp = 2
*.ue[*].app[2].dscp = 3
*.ue[*].app[3].dscp = 4
