[General]
abstract = true
sim-time-limit=20s
**.routingRecorder.enabled = false

############### Statistics ##################
output-scalar-file = ${resultdir}/${configname}/${repetition}.sca
output-vector-file = ${resultdir}/${configname}/${repetition}.vec
seed-set = ${repetition}
**.vector-recording = true

################ Mobility parameters #####################
# *

**.mobility.constraintAreaMaxX = 1000m
**.mobility.constraintAreaMaxY = 1000m
**.mobility.constraintAreaMinX = 0m
**.mobility.constraintAreaMinY = 0m
**.mobility.constraintAreaMinZ = 0m
**.mobility.constraintAreaMaxZ = 0m
**.mobility.initFromDisplayString = false

############### Number of Resource Blocks ################
**.numBands = 50 # this value should be kept equal to the number of RBs

############### Transmission Power ##################
**.ueTxPower = 26dBm
**.eNodeBTxPower = 40dBm
**.targetBler = 0.01
**.blerShift = 5

############### IPv4 configurator config #################
*.configurator.config = xmldoc("./demo.xml")


#------------------------------------#
# Config Standalone
#
# Topology configuration for the exemplary scenario for NR Standalone deployment
#
[Config Standalone]
network = simu5g.simulations.nr.networks.SingleCell_Standalone
sim-time-limit=20s

############### e/gNodeB configuration #################
*.gnb.mobility.initialX = 450m
*.gnb.mobility.initialY = 300m

############## UE configuration ##################
*.numUe = 1

# connect the UE's NIC to the corresponding serving gNB (NR side only)
*.ue[0].macCellId = 0
*.ue[0].masterId = 0
*.ue[0].nrMacCellId = 1
*.ue[0].nrMasterId = 1

# UE position
*.ue[0].mobility.initialX = 450m
*.ue[0].mobility.initialY = 350m
#------------------------------------#



#------------------------------------#
# Config VoIP-DL
#
# General configuration for Voice-over-IP DL traffic to the UE
#
[Config VoIP-DL]
extends=Standalone

# one UDP application for each user
*.ue[*].numApps = 1

# the amount of UDP applications on server should be equal to (numUEs)*(ue[*].numApps)
*.server.numApps = 1

#============= Application Setup =============
*.ue[*].app[*].typename = "VoipReceiver"
*.ue[*].app[0].localPort = 3000

*.server.app[*].packetSize = 40B
*.server.app[*].destAddress = "ue[0]" # obtain the address of the client by reading its index in the array of udp Apps
*.server.app[*].localPort = 3088+ancestorIndex(0)
*.server.app[*].typename = "VoipSender"
*.server.app[*].startTime = uniform(0s,0.02s)
#------------------------------------#



#------------------------------------#
# Config VoIP-UL
#
# General configuration for Voice-over-IP UL traffic from the UE
#
[Config VoIP-UL]
extends=Standalone

# one UDP application for each user
*.ue[*].numApps = 1

# the amount of UDP applications on server should be equal to (numUEs)*(ue[*].numApps)
*.server.numApps = 1

#============= Application Setup =============
*.server.app[*].typename = "VoipReceiver"
*.server.app[*].localPort = 3000+ancestorIndex(0)

*.ue[*].app[*].packetSize = 40B
# obtain the address of the client by reading its index in the array of udp Apps
*.ue[*].app[*].destAddress = "server"
*.ue[*].app[*].localPort = 3088+ancestorIndex(0)
*.ue[*].app[*].typename = "VoipSender"
*.ue[*].app[*].startTime = uniform(0s,0.02s)
#------------------------------------#



#------------------------------------#
# Config VoIP-DL-AM
#
# Voice-over-IP DL traffic using RLC Acknowledged Mode (AM)
#
[Config VoIP-DL-AM]
extends=VoIP-DL

# Activate RLC-AM for VoIP (conversational) traffic
**.pdcp.conversationalRlc = "AM"

# Use NR RLC-AM implementation
*.gnb.cellularNic.rlc.am.typename = "NrRlcAm"
*.ue[*].cellularNic.nrRlc.am.typename = "NrRlcAm"
#------------------------------------#



#------------------------------------#
# Config VoIP-DL-AM-Lossy
#
# Same as VoIP-DL-AM but with poor channel conditions to trigger
# HARQ failures and exercise the RLC-AM ARQ retransmission mechanism.
#
[Config VoIP-DL-AM-Lossy]
extends=VoIP-DL-AM

# Expand constraint area and move UE far from gNB to degrade SINR
**.mobility.constraintAreaMaxX = 5000m
**.mobility.constraintAreaMaxY = 5000m
*.ue[0].mobility.initialX = 450m
*.ue[0].mobility.initialY = 2500m

# No HARQ retransmissions -- single-shot, so any corrupted PDU is lost at MAC
**.maxHarqRtx = 0

# Raise target BLER to make the scheduler pick a less robust MCS
**.targetBler = 0.1

# Results (SINR -6.7 dB, 20s sim):
#   48 HARQ discards at MAC (no retransmissions allowed)
#   39 RLC-AM retransmissions (772 RLC PDUs for 733 SDUs)
#   0 RLC packet loss (all recovered by ARQ)
#   RLC delay: 16.1 ms (vs 4.4 ms in clean scenario)
#   Throughput: ~2824 Bps (nearly identical to clean)
#   TX window occupation: 9.6 (vs 3.4 in clean)
#------------------------------------#



#------------------------------------#
# Config VoIP-UL-AM
#
# Voice-over-IP UL traffic using RLC Acknowledged Mode (AM)
#
[Config VoIP-UL-AM]
extends=VoIP-UL

# Activate RLC-AM for VoIP (conversational) traffic
**.pdcp.conversationalRlc = "AM"

# Use NR RLC-AM implementation
*.gnb.cellularNic.rlc.am.typename = "NrRlcAm"
*.ue[*].cellularNic.nrRlc.am.typename = "NrRlcAm"
#------------------------------------#
