[General]
cmdenv-express-mode = true
image-path=../../../images
output-scalar-file-append = false
seed-set = ${repetition}
**.vector-recording = false

**.routingRecorder.enabled = false
**.networkConfiguratorModule = ""
#**.fcsMode = "computed"
#**.crcMode = "computed"
# *

**.mobility.constraintAreaMaxX = 1000m
**.mobility.constraintAreaMaxY = 1000m
**.mobility.constraintAreaMinX = 0m
**.mobility.constraintAreaMinY = 0m
**.mobility.constraintAreaMinZ = 0m
**.mobility.constraintAreaMaxZ = 0m
**.mobility.initFromDisplayString = false

############### Phy layer parameters ################
**.amcType = "NRAmc"
**.pilotMode = "ROBUST_CQI" 
**.targetBler = 0.01
**.blerShift = 5  
**.fbPeriod = 40 

############### IPv4 configurator config #################
*.configurator.config = xmldoc("./demo.xml")

############### eNodeB configuration #################
*.gnb.mobility.initialX = 450m
*.gnb.mobility.initialY = 300m

############## ue configuration ##################
# connect the ue's NIC to the corresponding serving gnb
*.ue*.macCellId = 1
*.ue*.masterId = 1
*.ue*.nrMacCellId = 1
*.ue*.nrMasterId = 1

# ue position
*.ue*.mobilityType = "StationaryMobility"
*.ue*.mobility.initialX = 450m
*.ue*.mobility.initialY = 350m

*.bkUe[*].macCellId = 1
*.bkUe[*].masterId = 1
*.bkUe[*].nrMacCellId = 1
*.bkUe[*].nrMasterId = 1

# ue position
*.bkUe[*].mobilityType = "StationaryMobility"
*.bkUe[*].mobility.initialX = uniform(150m,750m)
*.bkUe[*].mobility.initialY = uniform(0m,600m)




#############################################################################
# BgSingleCellValidation
#
# This scenario is used to evaluate background UEs in a single cell scenario
# The network contains one gNB and one UE. This scenario is extended by two 
# configurations: one adding simulated UEs, one adding background UEs 
[Config BgSingleCellValidation]
network = simu5g.simulations.NR.pimrc_extension.ClientServerExample

sim-time-limit = 121s
warmup-period = 1s
repeat = 10

############### CA configuration ######################## 
*.carrierAggregation.numComponentCarriers = ${ca=1}
*.carrierAggregation.componentCarrier[*].numerologyIndex = ${u=0,1,2,3,4}
*.carrierAggregation.componentCarrier[0].carrierFrequency = 2GHz
*.carrierAggregation.componentCarrier[1].carrierFrequency = 700MHz
*.carrierAggregation.componentCarrier[2].carrierFrequency = 6GHz
*.carrierAggregation.componentCarrier[*].numBands = ${rbs=25,50,100}

*.gnb.cellularNic.numCarriers = ${ca}
*.gnb.cellularNic.channelModel[*].componentCarrierIndex = ancestorIndex(0)
*.ue.cellularNic.numNRCarriers = 1
*.ue.cellularNic.nrChannelModel[0].componentCarrierIndex = 0
*.bkUe[*].cellularNic.numNRCarriers = 1
*.bkUe[*].cellularNic.nrChannelModel[0].componentCarrierIndex = ancestorIndex(2) % ${ca}


*.gnb.mobility.initialX = 500m
*.gnb.mobility.initialY = 500m
*.ue*.mobility.initialX = 500m
*.ue*.mobility.initialY = 800m


############# Traffic configuration #################
*.ue.numApps = 1
*.server.numApps = 1

*.server.app[*].typename = "UdpEchoApp"
*.server.app[*].localPort = 5000+ancestorIndex(0)

*.ue.app[*].typename = "UdpBasicApp"
*.ue.app[*].destAddresses = "10.0.4.2" 
*.ue.app[*].destPort = 5000+ancestorIndex(0)
*.ue.app[*].localPort = 6000+ancestorIndex(0)
*.ue.app[*].startTime = uniform(0s,0.02s)
*.ue.app[*].messageLength = ${msgLen=1000B}
*.ue.app[*].sendInterval = ${sndInt=40ms}   # 200 kbps


############## Routing configuration ##############
# configure routing tables of each network element
*.server.ipv4.routingTable.routingFile = "routing/server.mrt"
*.router.ipv4.routingTable.routingFile = "routing/router.mrt"
*.natRouter.ipv4.routingTable.routingFile = "routing/natRouter.mrt"
*.upf.ipv4.routingTable.routingFile = "routing/upf.mrt"
*.gnb.ipv4.routingTable.routingFile = "routing/gnb.mrt"
*.ue.ipv4.routingTable.routingFile = "routing/ue.mrt"
*.bkUe[*].ipv4.routingTable.routingFile = "routing/bkUe"+string(ancestorIndex(2))+".mrt"

# ---------------------------------------------------------#


#############################################################
# This configuration uses simulated UEs
#
[Config BgSingleCellValidation-simulated]
extends = BgSingleCellValidation

*.bkUe[*].macCellId = 1
*.bkUe[*].masterId = 1
*.bkUe[*].nrMacCellId = 1
*.bkUe[*].nrMasterId = 1
*.bkUe[*].mobility.initialX = uniform(100m,900m)
*.bkUe[*].mobility.initialY = uniform(100m,900m)
*.numBkUEs = ${numBkUEs=0,25,50,75,100,125,150,175,200}


###### Apps configuration ########
*.server.numApps = 1 + ${numBkUEs}

*.bkUe[*].numApps = 1
*.bkUe[*].app[*].typename = "UdpBasicApp"
*.bkUe[*].app[*].destAddresses = "10.0.4.2" 
*.bkUe[*].app[*].destPort = 5000+ancestorIndex(1)+1
*.bkUe[*].app[*].localPort = 6000+ancestorIndex(0)
*.bkUe[*].app[*].startTime = uniform(0s,0.02s)
*.bkUe[*].app[*].messageLength = ${msgLen}
*.bkUe[*].app[*].sendInterval = ${sndInt}   # 200 kbps


output-scalar-file = ${resultdir}/${configname}/ca=${ca}-u=${u}-rbs=${rbs}-msgLen=${msgLen}-sndInt=${sndInt}-bkUEs=${numBkUEs}-${repetition}.sca
output-vector-file = ${resultdir}/${configname}/ca=${ca}-u=${u}-rbs=${rbs}-msgLen=${msgLen}-sndInt=${sndInt}-bkUEs=${numBkUEs}-${repetition}.vec

#------------------------------------#



#########################################################
# This configuration uses background UEs
#
[Config BgSingleCellValidation-generated]
extends = BgSingleCellValidation


############# Background traffic configuration #################
**.bgTrafficGenerator[0].numBgUes = ${numBkUEs=0,25,50,75,100,125,150,175,200}
**.bgTrafficGenerator[0].bgUE[*].mobility.initialX = uniform(100m,900m)
**.bgTrafficGenerator[0].bgUE[*].mobility.initialY = uniform(100m,900m)
**.bgTrafficGenerator[0].bgUE[*].trafficGeneratorType = "TrafficGeneratorCbr"
**.bgTrafficGenerator[0].bgUE[*].generator.startTimeDl = uniform(0s,0.02s)
**.bgTrafficGenerator[0].bgUE[*].generator.startTimeUl = uniform(0s,0.02s)
**.bgTrafficGenerator[0].bgUE[*].generator.packetSizeDl = ${msgLen}
**.bgTrafficGenerator[0].bgUE[*].generator.packetSizeUl = ${msgLen}
**.bgTrafficGenerator[0].bgUE[*].generator.periodDl = ${sndInt}
**.bgTrafficGenerator[0].bgUE[*].generator.periodUl = ${sndInt}


output-scalar-file = ${resultdir}/${configname}/ca=${ca}-u=${u}-rbs=${rbs}-msgLen=${msgLen}-sndInt=${sndInt}-bkUEs=${numBkUEs}-${repetition}.sca
output-vector-file = ${resultdir}/${configname}/ca=${ca}-u=${u}-rbs=${rbs}-msgLen=${msgLen}-sndInt=${sndInt}-bkUEs=${numBkUEs}-${repetition}.vec





#####################################################################################
# BgMulticellValidation-simulated
#
# This scenario is used as baseline for the multicell scenario with Background cells
# The network contains one central gNB, surrounded by three gNBs. Each gNB serves a 
# number of UEs (completely modeled) 
[Config BgMulticellValidation]
sim-time-limit = 4s
warmup-period = 0s
repeat = 1

**.fading = false
**.shadowing = false
**.downlink_interference = true
**.uplink_interference = true
**.bgCell_interference = true

############### IPv4 configurator config #################
**.networkConfiguratorModule = "configurator"
*.configurator.config = xmldoc("./demo.xml")

**.mobility.constraintAreaMaxX = 2000m
**.mobility.constraintAreaMaxY = 2000m
**.mobility.constraintAreaMinX = 0m
**.mobility.constraintAreaMinY = 0m
**.mobility.constraintAreaMinZ = 0m
**.mobility.constraintAreaMaxZ = 0m
**.mobility.initFromDisplayString = false

############## deployment #######################
*.gnb.mobility.initialX = 1000m
*.gnb.mobility.initialY = 1000m
*.ue.mobility.initialX = 1000m
*.ue.mobility.initialY = 1050m

############## ue configuration ##################
# connect the ue's NIC to the corresponding serving gnb
*.ue*.macCellId = 0
*.ue*.masterId = 0
*.ue*.nrMacCellId = 1
*.ue*.nrMasterId = 1

############### CA configuration ######################## 
*.carrierAggregation.numComponentCarriers = 1
*.carrierAggregation.componentCarrier[0].numerologyIndex = ${u=0}
*.carrierAggregation.componentCarrier[0].numBands = ${rbs=100}
*.carrierAggregation.componentCarrier[0].carrierFrequency = 2GHz

############### AMC parameters ################
**.amcType = "NRAmc"
**.pilotMode = ${cqiMode="AVG_CQI"}
**.targetBler = 0.001
**.blerShift = ${blerShift=5}  
**.fbPeriod = 40 



#####################################################################################
# BgMulticellValidation-simulated
#
# This scenario is used as baseline for the multicell scenario with Background cells
# The network contains one central gNB, surrounded by three gNBs. Each gNB serves a 
# number of UEs (completely modeled) 
[Config BgMulticellValidation-simulated]
network = simu5g.simulations.NR.pimrc_extension.MulticellValidation
extends = BgMulticellValidation


############### gNodeBs configuration #################
*.extGnb0.mobility.initialX = 750m
*.extGnb0.mobility.initialY = 567m
*.extGnb1.mobility.initialX = 1500m
*.extGnb1.mobility.initialY = 1000m
*.extGnb2.mobility.initialX = 750m
*.extGnb2.mobility.initialY = 1433m
*.extGnb3.mobility.initialX = 1250m
*.extGnb3.mobility.initialY = 567m
*.extGnb4.mobility.initialX = 1250m
*.extGnb4.mobility.initialY = 1433m
*.extGnb5.mobility.initialX = 500m
*.extGnb5.mobility.initialY = 1000m


**.macCellId = 0
**.masterId = 0
*.bkUe[*].nrMacCellId = 1
*.bkUe[*].nrMasterId = 1
*.extBkUe0[*].nrMacCellId = 2
*.extBkUe0[*].nrMasterId = 2
*.extBkUe1[*].nrMacCellId = 3
*.extBkUe1[*].nrMasterId = 3
*.extBkUe2[*].nrMacCellId = 4
*.extBkUe2[*].nrMasterId = 4
*.extBkUe3[*].nrMacCellId = 5
*.extBkUe3[*].nrMasterId = 5
*.extBkUe4[*].nrMacCellId = 6
*.extBkUe4[*].nrMasterId = 6
*.extBkUe5[*].nrMacCellId = 7
*.extBkUe5[*].nrMasterId = 7

*.numBkUEs = ${numBkUEs=50}
*.bkUe[*].mobility.initialX = uniform(750m,1250m)
*.bkUe[*].mobility.initialY = uniform(750m,1250m)
*.numExtBkUEs* = ${numBkUEs}
*.extBkUe0[*].mobility.initialX = uniform(500m,1000m)
*.extBkUe0[*].mobility.initialY = uniform(317m,817m)
*.extBkUe1[*].mobility.initialX = uniform(1250m,1750m)
*.extBkUe1[*].mobility.initialY = uniform(750m,1250m)
*.extBkUe2[*].mobility.initialX = uniform(500m,1000m)
*.extBkUe2[*].mobility.initialY = uniform(1183m,1933m)
*.extBkUe3[*].mobility.initialX = uniform(1000m,1500m)
*.extBkUe3[*].mobility.initialY = uniform(317m,817m)
*.extBkUe4[*].mobility.initialX = uniform(1000m,1500m)
*.extBkUe4[*].mobility.initialY = uniform(1183m,1933m)
*.extBkUe5[*].mobility.initialX = uniform(250m,750m)
*.extBkUe5[*].mobility.initialY = uniform(750m,1250m)


############# Traffic configuration #################
*.ue.numApps = 2
*.bkUe[*].numApps = 2
*.extBkUe?[*].numApps = 2
*.server.numApps = 1 + ${numBkUEs}
*.extServer?.numApps = ${numBkUEs}

*.serverUl.numApps = 1 + ${numBkUEs}
*.extServerUl?.numApps = ${numBkUEs}

# --- DL traffic configuration --- #
*.server.app[*].typename = "CbrSender"
*.server.app[*].localPort = 5000+ancestorIndex(0)
*.server.app[*].destPort = 1000
*.server.app[*].startTime = uniform(0s,0.02s)
*.server.app[*].PacketSize = ${msgLen=1000}
*.server.app[*].sampling_time = ${sndInt=40ms}
*.server.app[0].destAddress = "ue"
*.server.app[1..].destAddress = "bkUe["+string(ancestorIndex(0)-1)+"]"
*.extServer?.app[*].typename = "CbrSender"
*.extServer?.app[*].localPort = 5000+ancestorIndex(0)
*.extServer0.app[*].destAddress = "extBkUe0["+string(ancestorIndex(0))+"]"
*.extServer1.app[*].destAddress = "extBkUe1["+string(ancestorIndex(0))+"]"
*.extServer2.app[*].destAddress = "extBkUe2["+string(ancestorIndex(0))+"]"
*.extServer3.app[*].destAddress = "extBkUe3["+string(ancestorIndex(0))+"]"
*.extServer4.app[*].destAddress = "extBkUe4["+string(ancestorIndex(0))+"]"
*.extServer5.app[*].destAddress = "extBkUe5["+string(ancestorIndex(0))+"]"
*.extServer?.app[*].destPort = 1000
*.extServer?.app[*].startTime = uniform(0s,0.02s)
*.extServer?.app[*].PacketSize = ${msgLen}
*.extServer?.app[*].sampling_time = ${sndInt}

*.ue.app[0].typename = "CbrReceiver"
*.ue.app[0].localPort = 1000
*.bkUe[*].app[0].typename = "CbrReceiver"
*.bkUe[*].app[0].localPort = 1000
*.extBkUe?[*].app[0].typename = "CbrReceiver"
*.extBkUe?[*].app[0].localPort = 1000


# --- UL traffic configuration --- #
*.ue.app[1].typename = "CbrSender"
*.ue.app[1].localPort = 5000+ancestorIndex(0)
*.ue.app[1].startTime = uniform(0s,0.02s)
*.ue.app[1].PacketSize = ${msgLen}
*.ue.app[1].sampling_time = ${sndInt}
*.ue.app[1].destAddress = "serverUl"
*.ue.app[1].destPort = 1000
*.bkUe[*].app[1].typename = "CbrSender"
*.bkUe[*].app[1].startTime = uniform(0s,0.02s)
*.bkUe[*].app[1].PacketSize = ${msgLen}
*.bkUe[*].app[1].sampling_time = ${sndInt}
*.bkUe[*].app[1].destAddress = "serverUl"
*.bkUe[*].app[1].destPort = 1001+ancestorIndex(1)

*.extBkUe?[*].app[1].typename = "CbrSender"
*.extBkUe?[*].app[1].localPort = 5000+ancestorIndex(0)
*.extBkUe0[*].app[1].destAddress = "extServerUl0"
*.extBkUe1[*].app[1].destAddress = "extServerUl1"
*.extBkUe2[*].app[1].destAddress = "extServerUl2"
*.extBkUe3[*].app[1].destAddress = "extServerUl3"
*.extBkUe4[*].app[1].destAddress = "extServerUl4"
*.extBkUe5[*].app[1].destAddress = "extServerUl5"
*.extBkUe?[*].app[1].destPort = 1000+ancestorIndex(1)
*.extBkUe?[*].app[1].startTime = uniform(0s,0.02s)
*.extBkUe?[*].app[1].PacketSize = ${msgLen}
*.extBkUe?[*].app[1].sampling_time = ${sndInt}

*.serverUl.app[*].typename = "CbrReceiver"
*.serverUl.app[*].localPort = 1000+ancestorIndex(0)
*.extServerUl?.app[*].typename = "CbrReceiver"
*.extServerUl?.app[*].localPort = 1000+ancestorIndex(0)


output-scalar-file = ${resultdir}/${configname}/rbs=${rbs}-msgLen=${msgLen}-sndInt=${sndInt}-bkUEs=${numBkUEs}-cqiMode=${cqiMode}-blerShift=${blerShift}-${repetition}.sca
output-vector-file = ${resultdir}/${configname}/rbs=${rbs}-msgLen=${msgLen}-sndInt=${sndInt}-bkUEs=${numBkUEs}-cqiMode=${cqiMode}-blerShift=${blerShift}-${repetition}.vec

#------------------------------------#




[Config BgMulticellValidation-generated]
network = simu5g.simulations.NR.pimrc_extension.MulticellBackgroundValidation
extends = BgMulticellValidation

############### Bg Cells configuration #################
*.numBgCell = 6
*.bgCell[0].mobility.initialX = 750m
*.bgCell[0].mobility.initialY = 567m
*.bgCell[1].mobility.initialX = 1500m
*.bgCell[1].mobility.initialY = 1000m
*.bgCell[2].mobility.initialX = 750m
*.bgCell[2].mobility.initialY = 1433m
*.bgCell[3].mobility.initialX = 1250m
*.bgCell[3].mobility.initialY = 567m
*.bgCell[4].mobility.initialX = 1250m
*.bgCell[4].mobility.initialY = 1433m
*.bgCell[5].mobility.initialX = 500m
*.bgCell[5].mobility.initialY = 1000m
*.bgCell[*].bgBaseStation.isNr = true
*.bgCell[*].bgBaseStation.numBands = ${rbs}
*.bgCell[*].bgBaseStation.carrierFrequency = 2GHz
*.bgCell[*].bgBaseStation.numerologyIndex = ${u}

############# Simulated traffic configuration #################
*.ue.numApps = 2
*.server.numApps = 2 

# --- DL traffic configuration --- #
*.server.app[0].typename = "CbrSender"
*.server.app[0].localPort = 5000+ancestorIndex(0)
*.server.app[0].destAddress = "ue"
*.server.app[0].destPort = 1000
*.server.app[0].startTime = uniform(0s,0.02s)
*.server.app[0].PacketSize = ${msgLen=1000}
*.server.app[0].sampling_time = ${sndInt=40ms}
*.ue.app[0].typename = "CbrReceiver"
*.ue.app[0].localPort = 1000

# --- UL traffic configuration --- #
*.ue.app[1].typename = "CbrSender"
*.ue.app[1].localPort = 5000+ancestorIndex(0)
*.ue.app[1].destAddress = "server"
*.ue.app[1].destPort = 1000
*.ue.app[1].startTime = uniform(0s,0.02s)
*.ue.app[1].PacketSize = ${msgLen}
*.ue.app[1].sampling_time = ${sndInt}
*.server.app[1].typename = "CbrReceiver"
*.server.app[1].localPort = 1000


############# Background traffic configuration #################
*.gnb.cellularNic.bgTrafficGenerator[0].enablePeriodicCqiUpdate = ${periodicCqi=true}
*.gnb.cellularNic.bgTrafficGenerator[0].useAvgInterference = true
*.gnb.cellularNic.bgTrafficGenerator[0].numBgUes = ${numBkUEs=50}
*.gnb.cellularNic.bgTrafficGenerator[0].bgUE[*].trafficGeneratorType = "TrafficGeneratorCbr"
*.gnb.cellularNic.bgTrafficGenerator[0].bgUE[*].generator.startTimeDl = uniform(0s,0.04s)
*.gnb.cellularNic.bgTrafficGenerator[0].bgUE[*].generator.startTimeUl = uniform(0s,0.04s)
*.gnb.cellularNic.bgTrafficGenerator[0].bgUE[*].generator.packetSizeDl = ${msgLen}B
*.gnb.cellularNic.bgTrafficGenerator[0].bgUE[*].generator.packetSizeUl = ${msgLen}B
*.gnb.cellularNic.bgTrafficGenerator[0].bgUE[*].generator.headerLen = 29B
*.gnb.cellularNic.bgTrafficGenerator[0].bgUE[*].generator.periodDl = ${sndInt}
*.gnb.cellularNic.bgTrafficGenerator[0].bgUE[*].generator.periodUl = ${sndInt}
*.gnb.cellularNic.bgTrafficGenerator[0].bgUE[*].mobility.initialX = uniform(750m,1250m)
*.gnb.cellularNic.bgTrafficGenerator[0].bgUE[*].mobility.initialY = uniform(750m,1250m)

*.bgCell[*].bgTrafficGenerator.enablePeriodicCqiUpdate = ${periodicCqi}
*.bgCell[*].bgTrafficGenerator.useAvgInterference = true
*.bgCell[*].bgTrafficGenerator.numBgUes = ${numBkUEs}
*.bgCell[*].bgTrafficGenerator.bgUE[*].trafficGeneratorType = "TrafficGeneratorCbr"
*.bgCell[*].bgTrafficGenerator.bgUE[*].generator.startTimeDl = uniform(0s,0.04s)
*.bgCell[*].bgTrafficGenerator.bgUE[*].generator.startTimeUl = uniform(0s,0.04s)
*.bgCell[*].bgTrafficGenerator.bgUE[*].generator.packetSizeDl = ${msgLen}B
*.bgCell[*].bgTrafficGenerator.bgUE[*].generator.packetSizeUl = ${msgLen}B
*.bgCell[*].bgTrafficGenerator.bgUE[*].generator.periodDl = ${sndInt}
*.bgCell[*].bgTrafficGenerator.bgUE[*].generator.periodUl = ${sndInt}
*.bgCell[0].bgTrafficGenerator.bgUE[*].mobility.initialX = uniform(500m,1000m)
*.bgCell[0].bgTrafficGenerator.bgUE[*].mobility.initialY = uniform(317m,817m)
*.bgCell[1].bgTrafficGenerator.bgUE[*].mobility.initialX = uniform(1250m,1750m)
*.bgCell[1].bgTrafficGenerator.bgUE[*].mobility.initialY = uniform(750m,1250m)
*.bgCell[2].bgTrafficGenerator.bgUE[*].mobility.initialX = uniform(500m,1000m)
*.bgCell[2].bgTrafficGenerator.bgUE[*].mobility.initialY = uniform(1183m,1933m)
*.bgCell[3].bgTrafficGenerator.bgUE[*].mobility.initialX = uniform(1000m,1500m)
*.bgCell[3].bgTrafficGenerator.bgUE[*].mobility.initialY = uniform(317m,817m)
*.bgCell[4].bgTrafficGenerator.bgUE[*].mobility.initialX = uniform(1000m,1500m)
*.bgCell[4].bgTrafficGenerator.bgUE[*].mobility.initialY = uniform(1183m,1933m)
*.bgCell[5].bgTrafficGenerator.bgUE[*].mobility.initialX = uniform(250m,750m)
*.bgCell[5].bgTrafficGenerator.bgUE[*].mobility.initialY = uniform(750m,1250m)

# --- configure RTX rate for background UEs --- #
include rtxConfig/rtxRateDl-central.ini
include rtxConfig/rtxRateDl-0.ini
include rtxConfig/rtxRateDl-1.ini
include rtxConfig/rtxRateDl-2.ini
include rtxConfig/rtxRateDl-3.ini
include rtxConfig/rtxRateDl-4.ini
include rtxConfig/rtxRateDl-5.ini
include rtxConfig/rtxRateUl-central.ini
include rtxConfig/rtxRateUl-0.ini
include rtxConfig/rtxRateUl-1.ini
include rtxConfig/rtxRateUl-2.ini
include rtxConfig/rtxRateUl-3.ini
include rtxConfig/rtxRateUl-4.ini
include rtxConfig/rtxRateUl-5.ini

output-scalar-file = ${resultdir}/${configname}/u=${u}-rbs=${rbs}-msgLen=${msgLen}-sndInt=${sndInt}-bkUEs=${numBkUEs}-${repetition}.sca
output-vector-file = ${resultdir}/${configname}/u=${u}-rbs=${rbs}-msgLen=${msgLen}-sndInt=${sndInt}-bkUEs=${numBkUEs}-${repetition}.vec








# Multi Cell configuration
# 
# The central cell is surrounded by one tier of gNBs. Each surrounding
# gNB has a number of bgUEs
[Config MultiCellBackground]
network = simu5g.emulation.pimrc_extension.ExtClientServerMulticell2
sim-time-limit = 3s
############# Simulated traffic configuration #################
*.ue.numApps = 1
*.server.numApps = 1 

*.server.app[*].typename = "UdpEchoApp"
*.server.app[*].localPort = 5000+ancestorIndex(0)

*.ue.app[*].typename = "UdpBasicApp"
*.ue.app[*].destAddresses = "10.0.4.2" 
*.ue.app[*].destPort = 5000+ancestorIndex(0)
*.ue.app[*].localPort = 6000+ancestorIndex(0)
*.ue.app[*].startTime = uniform(0s,0.02s)
*.ue.app[*].messageLength = ${msgLen=1000B}
*.ue.app[*].sendInterval = ${sndInt=40ms}   # 200 kbps

**.downlink_interference = true
**.uplink_interference = true
**.extCell_interference = false
**.bgCell_interference = true

############### gNodeBs configuration #################

**.mobility.constraintAreaMaxX = 2000m
**.mobility.constraintAreaMaxY = 2000m
**.mobility.constraintAreaMinX = 0m
**.mobility.constraintAreaMinY = 0m
**.mobility.constraintAreaMinZ = 0m
**.mobility.constraintAreaMaxZ = 0m
**.mobility.initFromDisplayString = false


*.gnb.mobility.initialX = 1000m
*.gnb.mobility.initialY = 1000m
*.bgCell[0].mobility.initialX = 750m
*.bgCell[0].mobility.initialY = 567m
*.bgCell[1].mobility.initialX = 1500m
*.bgCell[1].mobility.initialY = 1000m
*.bgCell[2].mobility.initialX = 750m
*.bgCell[2].mobility.initialY = 1433m
*.bgCell[3].mobility.initialX = 1250m
*.bgCell[3].mobility.initialY = 567m
*.bgCell[4].mobility.initialX = 1250m
*.bgCell[4].mobility.initialY = 1433m
*.bgCell[5].mobility.initialX = 500m
*.bgCell[5].mobility.initialY = 1000m

############## ue configuration ##################
# connect the ue's NIC to the corresponding serving gnb
*.ue*.macCellId = 0
*.ue*.masterId = 0
*.ue*.nrMacCellId = 1
*.ue*.nrMasterId = 1

# ue position
*.ue*.mobilityType = "StationaryMobility"
*.ue*.mobility.initialX = 1000m
*.ue*.mobility.initialY = 1050m

############### CA configuration ######################## 
*.carrierAggregation.numComponentCarriers = 1
#*.carrierAggregation.componentCarrier[0].numerologyIndex = 0
#*.carrierAggregation.componentCarrier[0].numBands = 10
*.carrierAggregation.componentCarrier[0].carrierFrequency = 2GHz

*.numBgCell = ${numBgGnbs=6}
*.gnb.cellularNic.bgTrafficGenerator[0].numBgUes = ${bgUes=200}
*.bgCell[*].bgTrafficGenerator.numBgUes = ${bgUes}
*.carrierAggregation.componentCarrier[0].numBands = ${numBands=100}
*.carrierAggregation.componentCarrier[0].numerologyIndex = 4

*.gnb.cellularNic.numCarriers = 1
*.gnb.cellularNic.channelModel[0].componentCarrierIndex = 0
*.ue.cellularNic.numNRCarriers = 1
*.ue.cellularNic.nrChannelModel[0].componentCarrierIndex = 0

*.bgCell[*].bgBaseStation.isNr = true
*.bgCell[*].bgBaseStation.numBands = ${numBands}
*.bgCell[*].bgBaseStation.carrierFrequency = 2GHz
*.bgCell[*].bgBaseStation.numerologyIndex = 4

**.maxDataRatePerRb = 18.56Mbps

############### Phy layer parameters ################
**.amcType = "NRAmc"
**.pilotMode = "MIN_CQI" 
**.targetBler = 0.01
**.blerShift = 5  
**.fbPeriod = 40 

############# Background traffic configuration #################
*.gnb.cellularNic.bgTrafficGenerator[0].enablePeriodicCqiUpdate = ${periodicUpdate=true,false}
*.gnb.cellularNic.bgTrafficGenerator[0].useAvgInterference = true
*.gnb.cellularNic.bgTrafficGenerator[0].bgUE[*].trafficGeneratorType = "TrafficGeneratorCbr"
*.gnb.cellularNic.bgTrafficGenerator[0].bgUE[*].generator.startTimeDl = uniform(0s,0.04s)
*.gnb.cellularNic.bgTrafficGenerator[0].bgUE[*].generator.startTimeUl = uniform(0s,0.04s)
*.gnb.cellularNic.bgTrafficGenerator[0].bgUE[*].generator.packetSizeDl = 1000B
*.gnb.cellularNic.bgTrafficGenerator[0].bgUE[*].generator.packetSizeUl = 1000B
*.gnb.cellularNic.bgTrafficGenerator[0].bgUE[*].generator.periodDl = 0.04s
*.gnb.cellularNic.bgTrafficGenerator[0].bgUE[*].generator.periodUl = 0.04s
*.gnb.cellularNic.bgTrafficGenerator[0].bgUE[*].mobility.initialX = uniform(750m,1250m)
*.gnb.cellularNic.bgTrafficGenerator[0].bgUE[*].mobility.initialY = uniform(750m,1250m)

*.bgCell[*].bgTrafficGenerator.enablePeriodicCqiUpdate = ${periodicUpdate}
*.bgCell[*].bgTrafficGenerator.useAvgInterference = true
*.bgCell[*].bgTrafficGenerator.bgUE[*].trafficGeneratorType = "TrafficGeneratorCbr"
*.bgCell[*].bgTrafficGenerator.bgUE[*].generator.startTimeDl = uniform(0s,0.04s)
*.bgCell[*].bgTrafficGenerator.bgUE[*].generator.startTimeUl = uniform(0s,0.04s)
*.bgCell[*].bgTrafficGenerator.bgUE[*].generator.packetSizeDl = 1000B
*.bgCell[*].bgTrafficGenerator.bgUE[*].generator.packetSizeUl = 1000B
*.bgCell[*].bgTrafficGenerator.bgUE[*].generator.periodDl = 0.04s
*.bgCell[*].bgTrafficGenerator.bgUE[*].generator.periodUl = 0.04s
*.bgCell[0].bgTrafficGenerator.bgUE[*].mobility.initialX = uniform(500m,1000m)
*.bgCell[0].bgTrafficGenerator.bgUE[*].mobility.initialY = uniform(317m,817m)
*.bgCell[1].bgTrafficGenerator.bgUE[*].mobility.initialX = uniform(1250m,1750m)
*.bgCell[1].bgTrafficGenerator.bgUE[*].mobility.initialY = uniform(750m,1250m)
*.bgCell[2].bgTrafficGenerator.bgUE[*].mobility.initialX = uniform(500m,1000m)
*.bgCell[2].bgTrafficGenerator.bgUE[*].mobility.initialY = uniform(1183m,1933m)
*.bgCell[3].bgTrafficGenerator.bgUE[*].mobility.initialX = uniform(1000m,1500m)
*.bgCell[3].bgTrafficGenerator.bgUE[*].mobility.initialY = uniform(317m,817m)
*.bgCell[4].bgTrafficGenerator.bgUE[*].mobility.initialX = uniform(1000m,1500m)
*.bgCell[4].bgTrafficGenerator.bgUE[*].mobility.initialY = uniform(1183m,1933m)
*.bgCell[5].bgTrafficGenerator.bgUE[*].mobility.initialX = uniform(250m,750m)
*.bgCell[5].bgTrafficGenerator.bgUE[*].mobility.initialY = uniform(750m,1250m)

############### Statistics ##################
output-scalar-file = ${resultdir}/${configname}/periodicUpdate=${periodicUpdate}-bgUEs=${bgUes}-rbs=${numBands}-${repetition}.sca
output-vector-file = ${resultdir}/${configname}/periodicUpdate=${periodicUpdate}-bgUEs=${bgUes}-rbs=${numBands}-${repetition}.vec
