[General]
include ../standalone/omnetpp.ini

[Config UeDlFeedbackSmoke]
description = "Smoke test for UE-computed DL feedback driven by periodic CSI-RS in NR standalone"
extends = Standalone
sim-time-limit = 200ms

output-scalar-file = ${resultdir}/${configname}/${repetition}.sca
output-vector-file = ${resultdir}/${configname}/${repetition}.vec

*.configurator.config = xmldoc("../standalone/demo.xml")

*.gnb.cellularNic.phy.useUeDlFeedbackComputation = true
*.gnb.cellularNic.phy.csiRsPeriod = 10ms
*.ue[*].cellularNic.nrPhy.useUeDlFeedbackComputation = true

*.ue[*].cellularNic.nrDlFbGen.usePeriodic = true
*.ue[*].cellularNic.nrDlFbGen.fbPeriod = 20tti
*.ue[*].cellularNic.nrDlFbGen.fbDelay = 1tti

*.ue[*].cellularNic.nrChannelModel[0].collectSinrStatistics = true

*.ue[*].cellularNic.nrPhy.enableHandover = false
*.gnb.cellularNic.phy.enableHandover = false

*.ue[*].mobility.initialX = 450m
*.ue[*].mobility.initialY = 350m

**.vector-recording = false
