[General]
image-path=../../images
tkenv-plugin-path = ../../../inet/etc/plugins
output-scalar-file-append = false
sim-time-limit=50s
warmup-period = 5s
**.vector-recording = false
repeat = 3

network = simu5g.simulations.networks.SingleCell

output-scalar-file = ${resultdir}/${configname}/${iterationvars}-${repetition}.sca
output-vector-file = ${resultdir}/${configname}/${iterationvars}-${repetition}.vec
seed-set = ${repetition}


# Schedulers
**.mac.schedulingDisciplineDl = "MAXCI"
**.mac.schedulingDisciplineUl = "MAXCI"

################ Mobility parameters #####################

# *
**.mobility.constraintAreaMinZ = 0m
**.mobility.constraintAreaMaxZ = 0m
**.mobility.initFromDisplayString = true


############### Number of Resource Blocks ################
**.numRbDl = 6
**.numRbUl = 6
**.binder.numBands = 6 # this value should be kept equal to the number of RBs

############### Transmission Power ##################
**.ueTxPower = 26
**.eNodeBTxPower = 40

[Config VoIP]
**.numUe = ${numUEs=10,25,50,75}

# Schedulers
**.mac.schedulingDisciplineDl = ${sched="MAXCI_OPT_MB","MAXCI"}
**.mac.schedulingDisciplineUl = "MAXCI"

# one UDP application for each user
*.ue[*].numApps = 1

# the amount of UDP applications on server should be equal to (numUEs)*(ue[*].numApps) 
#*.server.numUdpApps = ${numUEs}

# connect each UE to the eNB
**.ue[*].macCellId = 1
**.ue[*].masterId = 1

# positioning and mobility
*.ue[*].mobility.initialMovementHeading = uniform(0deg, 360deg)
*.ue[*].mobility.constraintAreaMaxX = 1000m
*.ue[*].mobility.constraintAreaMaxY = 1000m
*.ue[*].mobility.constraintAreaMinX = 0m
*.ue[*].mobility.constraintAreaMinY = 0m
*.ue[*].mobility.initFromDisplayString = false
*.ue[*].mobility.initialX = uniform(0m,400m)
*.ue[*].mobility.initialY = uniform(0m,400m)
*.ue[*].mobility.initialZ = 0
*.ue[*].mobility.speed = 1mps
*.ue[*].mobilityType = "LinearMobility"

#============= Application Setup =============
*.ue[*].app[*].typename = "VoIPReceiver"
*.ue[*].app[0].localPort = 3000

*.server.app[*].PacketSize = 40
*.server.app[*].destAddress = "ue["+string(ancestorIndex(0))+"]" # obtain the address of the client by reading its index in the array of udp Apps
*.server.app[*].destPort = 3000
*.server.app[*].localPort = 3088+ancestorIndex(0) 
*.server.app[*].typename = "VoIPSender"
*.server.app[*].startTime = uniform(0s,0.050s)
*.server.numApps = ${numUEs}
#------------------------------------#

[Config VoipBigSize]
extends = VoIP

*.server.app[*].PacketSize = 400

**.numUe = ${numUEsBig=5,10,15}
*.server.numApps = ${numUEsBig}
