<?xml version="1.0" encoding="UTF-8"?>

<!--
SPDX-FileCopyrightText: 2023 Mario Franke <research@m-franke.net>

SPDX-License-Identifier: GPL-2.0-or-later
-->

<!-- generated on 2022-03-11 17:38:52 by Eclipse SUMO netconvert Version 1.11.0
<configuration xmlns:xsi="http://www.w3.org/2001/XMLSchema-instance" xsi:noNamespaceSchemaLocation="http://sumo.dlr.de/xsd/netconvertConfiguration.xsd">

    <input>
        <node-files value="Null-Island-3by3-grid.nod.xml"/>
        <edge-files value="Null-Island-3by3-grid.edg.xml"/>
    </input>

    <output>
        <output-file value="Null-Island-3by3-grid.net.xml"/>
    </output>

    <projection>
        <proj.utm value="true"/>
    </projection>

    <report>
        <aggregate-warnings value="5"/>
    </report>

</configuration>
-->

<net version="1.9" junctionCornerDetail="5" limitTurnSpeed="5.50" xmlns:xsi="http://www.w3.org/2001/XMLSchema-instance" xsi:noNamespaceSchemaLocation="http://sumo.dlr.de/xsd/net_file.xsd">

    <location netOffset="-166021.44,744.98" convBoundary="0.00,0.00,750.00,744.98" origBoundary="0.000000,-0.006731,0.006731,0.000000" projParameter="+proj=utm +zone=31 +ellps=WGS84 +datum=WGS84 +units=m +no_defs"/>

    <edge id=":n0_0_0" function="internal">
        <lane id=":n0_0_0_0" index="0" speed="6.08" length="7.74" shape="3.20,746.58 1.10,746.28 -0.40,745.38 -1.30,743.88 -1.60,741.78"/>
    </edge>
    <edge id=":n0_0_1" function="internal">
        <lane id=":n0_0_1_0" index="0" speed="3.90" length="2.58" shape="1.60,741.78 1.70,742.48 2.00,742.98 2.50,743.28 3.20,743.38"/>
    </edge>
    <edge id=":n0_1_0" function="internal">
        <lane id=":n0_1_0_0" index="0" speed="13.89" length="14.40" shape="-1.60,503.85 -1.60,489.45"/>
    </edge>
    <edge id=":n0_1_1" function="internal">
        <lane id=":n0_1_1_0" index="0" speed="8.00" length="5.93" shape="-1.60,503.85 -1.05,500.00 0.00,498.25"/>
    </edge>
    <edge id=":n0_1_2" function="internal">
        <lane id=":n0_1_2_0" index="0" speed="3.65" length="2.34" shape="-1.60,503.85 -0.80,502.65 0.00,502.25"/>
    </edge>
    <edge id=":n0_1_9" function="internal">
        <lane id=":n0_1_9_0" index="0" speed="8.00" length="8.26" shape="0.00,498.25 0.60,497.25 3.35,495.60 7.20,495.05"/>
    </edge>
    <edge id=":n0_1_10" function="internal">
        <lane id=":n0_1_10_0" index="0" speed="3.65" length="2.34" shape="0.00,502.25 0.80,502.65 1.60,503.85"/>
    </edge>
    <edge id=":n0_1_3" function="internal">
        <lane id=":n0_1_3_0" index="0" speed="6.51" length="9.03" shape="7.20,498.25 4.75,498.60 3.00,499.65 1.95,501.40 1.60,503.85"/>
    </edge>
    <edge id=":n0_1_4" function="internal">
        <lane id=":n0_1_4_0" index="0" speed="8.00" length="14.19" shape="7.20,498.25 3.35,497.70 0.60,496.05 -1.05,493.30 -1.60,489.45"/>
    </edge>
    <edge id=":n0_1_5" function="internal">
        <lane id=":n0_1_5_0" index="0" speed="3.65" length="4.67" shape="7.20,498.25 6.00,497.45 5.60,496.65 6.00,495.85 7.20,495.05"/>
    </edge>
    <edge id=":n0_1_6" function="internal">
        <lane id=":n0_1_6_0" index="0" speed="6.51" length="9.03" shape="1.60,489.45 1.95,491.90 3.00,493.65 4.75,494.70 7.20,495.05"/>
    </edge>
    <edge id=":n0_1_7" function="internal">
        <lane id=":n0_1_7_0" index="0" speed="13.89" length="14.40" shape="1.60,489.45 1.60,503.85"/>
    </edge>
    <edge id=":n0_1_8" function="internal">
        <lane id=":n0_1_8_0" index="0" speed="3.65" length="2.34" shape="1.60,489.45 0.80,490.65 0.00,491.05"/>
    </edge>
    <edge id=":n0_1_11" function="internal">
        <lane id=":n0_1_11_0" index="0" speed="3.65" length="2.34" shape="0.00,491.05 -0.80,490.65 -1.60,489.45"/>
    </edge>
    <edge id=":n0_2_0" function="internal">
        <lane id=":n0_2_0_0" index="0" speed="13.89" length="14.40" shape="-1.60,255.53 -1.60,241.13"/>
    </edge>
    <edge id=":n0_2_1" function="internal">
        <lane id=":n0_2_1_0" index="0" speed="8.00" length="5.93" shape="-1.60,255.53 -1.05,251.68 0.00,249.93"/>
    </edge>
    <edge id=":n0_2_2" function="internal">
        <lane id=":n0_2_2_0" index="0" speed="3.65" length="2.34" shape="-1.60,255.53 -0.80,254.33 0.00,253.93"/>
    </edge>
    <edge id=":n0_2_9" function="internal">
        <lane id=":n0_2_9_0" index="0" speed="8.00" length="8.26" shape="0.00,249.93 0.60,248.93 3.35,247.28 7.20,246.73"/>
    </edge>
    <edge id=":n0_2_10" function="internal">
        <lane id=":n0_2_10_0" index="0" speed="3.65" length="2.34" shape="0.00,253.93 0.80,254.33 1.60,255.53"/>
    </edge>
    <edge id=":n0_2_3" function="internal">
        <lane id=":n0_2_3_0" index="0" speed="6.51" length="9.03" shape="7.20,249.93 4.75,250.28 3.00,251.33 1.95,253.08 1.60,255.53"/>
    </edge>
    <edge id=":n0_2_4" function="internal">
        <lane id=":n0_2_4_0" index="0" speed="8.00" length="14.19" shape="7.20,249.93 3.35,249.38 0.60,247.73 -1.05,244.98 -1.60,241.13"/>
    </edge>
    <edge id=":n0_2_5" function="internal">
        <lane id=":n0_2_5_0" index="0" speed="3.65" length="4.67" shape="7.20,249.93 6.00,249.13 5.60,248.33 6.00,247.53 7.20,246.73"/>
    </edge>
    <edge id=":n0_2_6" function="internal">
        <lane id=":n0_2_6_0" index="0" speed="6.51" length="9.03" shape="1.60,241.13 1.95,243.58 3.00,245.33 4.75,246.38 7.20,246.73"/>
    </edge>
    <edge id=":n0_2_7" function="internal">
        <lane id=":n0_2_7_0" index="0" speed="13.89" length="14.40" shape="1.60,241.13 1.60,255.53"/>
    </edge>
    <edge id=":n0_2_8" function="internal">
        <lane id=":n0_2_8_0" index="0" speed="3.65" length="2.34" shape="1.60,241.13 0.80,242.33 0.00,242.73"/>
    </edge>
    <edge id=":n0_2_11" function="internal">
        <lane id=":n0_2_11_0" index="0" speed="3.65" length="2.34" shape="0.00,242.73 -0.80,242.33 -1.60,241.13"/>
    </edge>
    <edge id=":n0_3_0" function="internal">
        <lane id=":n0_3_0_0" index="0" speed="6.08" length="7.74" shape="-1.60,3.20 -1.30,1.10 -0.40,-0.40 1.10,-1.30 3.20,-1.60"/>
    </edge>
    <edge id=":n0_3_1" function="internal">
        <lane id=":n0_3_1_0" index="0" speed="3.90" length="2.58" shape="3.20,1.60 2.50,1.70 2.00,2.00 1.70,2.50 1.60,3.20"/>
    </edge>
    <edge id=":n1_0_0" function="internal">
        <lane id=":n1_0_0_0" index="0" speed="13.89" length="14.40" shape="257.20,746.58 242.80,746.58"/>
    </edge>
    <edge id=":n1_0_1" function="internal">
        <lane id=":n1_0_1_0" index="0" speed="8.00" length="5.93" shape="257.20,746.58 253.35,746.03 251.60,744.98"/>
    </edge>
    <edge id=":n1_0_2" function="internal">
        <lane id=":n1_0_2_0" index="0" speed="3.65" length="2.34" shape="257.20,746.58 256.00,745.78 255.60,744.98"/>
    </edge>
    <edge id=":n1_0_9" function="internal">
        <lane id=":n1_0_9_0" index="0" speed="8.00" length="8.26" shape="251.60,744.98 250.60,744.38 248.95,741.63 248.40,737.78"/>
    </edge>
    <edge id=":n1_0_10" function="internal">
        <lane id=":n1_0_10_0" index="0" speed="3.65" length="2.34" shape="255.60,744.98 256.00,744.18 257.20,743.38"/>
    </edge>
    <edge id=":n1_0_3" function="internal">
        <lane id=":n1_0_3_0" index="0" speed="6.51" length="9.03" shape="251.60,737.78 251.95,740.23 253.00,741.98 254.75,743.03 257.20,743.38"/>
    </edge>
    <edge id=":n1_0_4" function="internal">
        <lane id=":n1_0_4_0" index="0" speed="8.00" length="14.19" shape="251.60,737.78 251.05,741.63 249.40,744.38 246.65,746.03 242.80,746.58"/>
    </edge>
    <edge id=":n1_0_5" function="internal">
        <lane id=":n1_0_5_0" index="0" speed="3.65" length="4.67" shape="251.60,737.78 250.80,738.98 250.00,739.38 249.20,738.98 248.40,737.78"/>
    </edge>
    <edge id=":n1_0_6" function="internal">
        <lane id=":n1_0_6_0" index="0" speed="6.51" length="9.03" shape="242.80,743.38 245.25,743.03 247.00,741.98 248.05,740.23 248.40,737.78"/>
    </edge>
    <edge id=":n1_0_7" function="internal">
        <lane id=":n1_0_7_0" index="0" speed="13.89" length="14.40" shape="242.80,743.38 257.20,743.38"/>
    </edge>
    <edge id=":n1_0_8" function="internal">
        <lane id=":n1_0_8_0" index="0" speed="3.65" length="2.34" shape="242.80,743.38 244.00,744.18 244.40,744.98"/>
    </edge>
    <edge id=":n1_0_11" function="internal">
        <lane id=":n1_0_11_0" index="0" speed="3.65" length="2.34" shape="244.40,744.98 244.00,745.78 242.80,746.58"/>
    </edge>
    <edge id=":n1_1_0" function="internal">
        <lane id=":n1_1_0_0" index="0" speed="6.51" length="9.03" shape="248.40,503.85 248.05,501.40 247.00,499.65 245.25,498.60 242.80,498.25"/>
    </edge>
    <edge id=":n1_1_1" function="internal">
        <lane id=":n1_1_1_0" index="0" speed="13.89" length="14.40" shape="248.40,503.85 248.40,489.45"/>
    </edge>
    <edge id=":n1_1_2" function="internal">
        <lane id=":n1_1_2_0" index="0" speed="8.00" length="14.19" shape="248.40,503.85 248.95,500.00 250.60,497.25 253.35,495.60 257.20,495.05"/>
    </edge>
    <edge id=":n1_1_3" function="internal">
        <lane id=":n1_1_3_0" index="0" speed="3.65" length="4.67" shape="248.40,503.85 249.20,502.65 250.00,502.25 250.80,502.65 251.60,503.85"/>
    </edge>
    <edge id=":n1_1_4" function="internal">
        <lane id=":n1_1_4_0" index="0" speed="6.51" length="9.03" shape="257.20,498.25 254.75,498.60 253.00,499.65 251.95,501.40 251.60,503.85"/>
    </edge>
    <edge id=":n1_1_5" function="internal">
        <lane id=":n1_1_5_0" index="0" speed="13.89" length="14.40" shape="257.20,498.25 242.80,498.25"/>
    </edge>
    <edge id=":n1_1_6" function="internal">
        <lane id=":n1_1_6_0" index="0" speed="8.00" length="5.93" shape="257.20,498.25 253.35,497.70 251.60,496.65"/>
    </edge>
    <edge id=":n1_1_7" function="internal">
        <lane id=":n1_1_7_0" index="0" speed="3.65" length="2.34" shape="257.20,498.25 256.00,497.45 255.60,496.65"/>
    </edge>
    <edge id=":n1_1_16" function="internal">
        <lane id=":n1_1_16_0" index="0" speed="8.00" length="8.26" shape="251.60,496.65 250.60,496.05 248.95,493.30 248.40,489.45"/>
    </edge>
    <edge id=":n1_1_17" function="internal">
        <lane id=":n1_1_17_0" index="0" speed="3.65" length="2.34" shape="255.60,496.65 256.00,495.85 257.20,495.05"/>
    </edge>
    <edge id=":n1_1_8" function="internal">
        <lane id=":n1_1_8_0" index="0" speed="6.51" length="9.03" shape="251.60,489.45 251.95,491.90 253.00,493.65 254.75,494.70 257.20,495.05"/>
    </edge>
    <edge id=":n1_1_9" function="internal">
        <lane id=":n1_1_9_0" index="0" speed="13.89" length="14.40" shape="251.60,489.45 251.60,503.85"/>
    </edge>
    <edge id=":n1_1_10" function="internal">
        <lane id=":n1_1_10_0" index="0" speed="8.00" length="14.19" shape="251.60,489.45 251.05,493.30 249.40,496.05 246.65,497.70 242.80,498.25"/>
    </edge>
    <edge id=":n1_1_11" function="internal">
        <lane id=":n1_1_11_0" index="0" speed="3.65" length="4.67" shape="251.60,489.45 250.80,490.65 250.00,491.05 249.20,490.65 248.40,489.45"/>
    </edge>
    <edge id=":n1_1_12" function="internal">
        <lane id=":n1_1_12_0" index="0" speed="6.51" length="9.03" shape="242.80,495.05 245.25,494.70 247.00,493.65 248.05,491.90 248.40,489.45"/>
    </edge>
    <edge id=":n1_1_13" function="internal">
        <lane id=":n1_1_13_0" index="0" speed="13.89" length="14.40" shape="242.80,495.05 257.20,495.05"/>
    </edge>
    <edge id=":n1_1_14" function="internal">
        <lane id=":n1_1_14_0" index="0" speed="8.00" length="5.93" shape="242.80,495.05 246.65,495.60 248.40,496.65"/>
    </edge>
    <edge id=":n1_1_15" function="internal">
        <lane id=":n1_1_15_0" index="0" speed="3.65" length="2.34" shape="242.80,495.05 244.00,495.85 244.40,496.65"/>
    </edge>
    <edge id=":n1_1_18" function="internal">
        <lane id=":n1_1_18_0" index="0" speed="8.00" length="8.26" shape="248.40,496.65 249.40,497.25 251.05,500.00 251.60,503.85"/>
    </edge>
    <edge id=":n1_1_19" function="internal">
        <lane id=":n1_1_19_0" index="0" speed="3.65" length="2.34" shape="244.40,496.65 244.00,497.45 242.80,498.25"/>
    </edge>
    <edge id=":n1_2_0" function="internal">
        <lane id=":n1_2_0_0" index="0" speed="6.51" length="9.03" shape="248.40,255.53 248.05,253.08 247.00,251.33 245.25,250.28 242.80,249.93"/>
    </edge>
    <edge id=":n1_2_1" function="internal">
        <lane id=":n1_2_1_0" index="0" speed="13.89" length="14.40" shape="248.40,255.53 248.40,241.13"/>
    </edge>
    <edge id=":n1_2_2" function="internal">
        <lane id=":n1_2_2_0" index="0" speed="8.00" length="14.19" shape="248.40,255.53 248.95,251.68 250.60,248.93 253.35,247.28 257.20,246.73"/>
    </edge>
    <edge id=":n1_2_3" function="internal">
        <lane id=":n1_2_3_0" index="0" speed="3.65" length="4.67" shape="248.40,255.53 249.20,254.33 250.00,253.93 250.80,254.33 251.60,255.53"/>
    </edge>
    <edge id=":n1_2_4" function="internal">
        <lane id=":n1_2_4_0" index="0" speed="6.51" length="9.03" shape="257.20,249.93 254.75,250.28 253.00,251.33 251.95,253.08 251.60,255.53"/>
    </edge>
    <edge id=":n1_2_5" function="internal">
        <lane id=":n1_2_5_0" index="0" speed="13.89" length="14.40" shape="257.20,249.93 242.80,249.93"/>
    </edge>
    <edge id=":n1_2_6" function="internal">
        <lane id=":n1_2_6_0" index="0" speed="8.00" length="5.93" shape="257.20,249.93 253.35,249.38 251.60,248.33"/>
    </edge>
    <edge id=":n1_2_7" function="internal">
        <lane id=":n1_2_7_0" index="0" speed="3.65" length="2.34" shape="257.20,249.93 256.00,249.13 255.60,248.33"/>
    </edge>
    <edge id=":n1_2_16" function="internal">
        <lane id=":n1_2_16_0" index="0" speed="8.00" length="8.26" shape="251.60,248.33 250.60,247.73 248.95,244.98 248.40,241.13"/>
    </edge>
    <edge id=":n1_2_17" function="internal">
        <lane id=":n1_2_17_0" index="0" speed="3.65" length="2.34" shape="255.60,248.33 256.00,247.53 257.20,246.73"/>
    </edge>
    <edge id=":n1_2_8" function="internal">
        <lane id=":n1_2_8_0" index="0" speed="6.51" length="9.03" shape="251.60,241.13 251.95,243.58 253.00,245.33 254.75,246.38 257.20,246.73"/>
    </edge>
    <edge id=":n1_2_9" function="internal">
        <lane id=":n1_2_9_0" index="0" speed="13.89" length="14.40" shape="251.60,241.13 251.60,255.53"/>
    </edge>
    <edge id=":n1_2_10" function="internal">
        <lane id=":n1_2_10_0" index="0" speed="8.00" length="14.19" shape="251.60,241.13 251.05,244.98 249.40,247.73 246.65,249.38 242.80,249.93"/>
    </edge>
    <edge id=":n1_2_11" function="internal">
        <lane id=":n1_2_11_0" index="0" speed="3.65" length="4.67" shape="251.60,241.13 250.80,242.33 250.00,242.73 249.20,242.33 248.40,241.13"/>
    </edge>
    <edge id=":n1_2_12" function="internal">
        <lane id=":n1_2_12_0" index="0" speed="6.51" length="9.03" shape="242.80,246.73 245.25,246.38 247.00,245.33 248.05,243.58 248.40,241.13"/>
    </edge>
    <edge id=":n1_2_13" function="internal">
        <lane id=":n1_2_13_0" index="0" speed="13.89" length="14.40" shape="242.80,246.73 257.20,246.73"/>
    </edge>
    <edge id=":n1_2_14" function="internal">
        <lane id=":n1_2_14_0" index="0" speed="8.00" length="5.93" shape="242.80,246.73 246.65,247.28 248.40,248.33"/>
    </edge>
    <edge id=":n1_2_15" function="internal">
        <lane id=":n1_2_15_0" index="0" speed="3.65" length="2.34" shape="242.80,246.73 244.00,247.53 244.40,248.33"/>
    </edge>
    <edge id=":n1_2_18" function="internal">
        <lane id=":n1_2_18_0" index="0" speed="8.00" length="8.26" shape="248.40,248.33 249.40,248.93 251.05,251.68 251.60,255.53"/>
    </edge>
    <edge id=":n1_2_19" function="internal">
        <lane id=":n1_2_19_0" index="0" speed="3.65" length="2.34" shape="244.40,248.33 244.00,249.13 242.80,249.93"/>
    </edge>
    <edge id=":n1_3_0" function="internal">
        <lane id=":n1_3_0_0" index="0" speed="6.51" length="9.03" shape="248.40,7.20 248.05,4.75 247.00,3.00 245.25,1.95 242.80,1.60"/>
    </edge>
    <edge id=":n1_3_1" function="internal">
        <lane id=":n1_3_1_0" index="0" speed="8.00" length="14.19" shape="248.40,7.20 248.95,3.35 250.60,0.60 253.35,-1.05 257.20,-1.60"/>
    </edge>
    <edge id=":n1_3_2" function="internal">
        <lane id=":n1_3_2_0" index="0" speed="3.65" length="4.67" shape="248.40,7.20 249.20,6.00 250.00,5.60 250.80,6.00 251.60,7.20"/>
    </edge>
    <edge id=":n1_3_3" function="internal">
        <lane id=":n1_3_3_0" index="0" speed="6.51" length="9.03" shape="257.20,1.60 254.75,1.95 253.00,3.00 251.95,4.75 251.60,7.20"/>
    </edge>
    <edge id=":n1_3_4" function="internal">
        <lane id=":n1_3_4_0" index="0" speed="13.89" length="14.40" shape="257.20,1.60 242.80,1.60"/>
    </edge>
    <edge id=":n1_3_5" function="internal">
        <lane id=":n1_3_5_0" index="0" speed="3.65" length="2.34" shape="257.20,1.60 256.00,0.80 255.60,0.00"/>
    </edge>
    <edge id=":n1_3_9" function="internal">
        <lane id=":n1_3_9_0" index="0" speed="3.65" length="2.34" shape="255.60,0.00 256.00,-0.80 257.20,-1.60"/>
    </edge>
    <edge id=":n1_3_6" function="internal">
        <lane id=":n1_3_6_0" index="0" speed="13.89" length="14.40" shape="242.80,-1.60 257.20,-1.60"/>
    </edge>
    <edge id=":n1_3_7" function="internal">
        <lane id=":n1_3_7_0" index="0" speed="8.00" length="5.93" shape="242.80,-1.60 246.65,-1.05 248.40,0.00"/>
    </edge>
    <edge id=":n1_3_8" function="internal">
        <lane id=":n1_3_8_0" index="0" speed="3.65" length="2.34" shape="242.80,-1.60 244.00,-0.80 244.40,0.00"/>
    </edge>
    <edge id=":n1_3_10" function="internal">
        <lane id=":n1_3_10_0" index="0" speed="8.00" length="8.26" shape="248.40,0.00 249.40,0.60 251.05,3.35 251.60,7.20"/>
    </edge>
    <edge id=":n1_3_11" function="internal">
        <lane id=":n1_3_11_0" index="0" speed="3.65" length="2.34" shape="244.40,0.00 244.00,0.80 242.80,1.60"/>
    </edge>
    <edge id=":n2_0_0" function="internal">
        <lane id=":n2_0_0_0" index="0" speed="13.89" length="14.40" shape="507.20,746.58 492.80,746.58"/>
    </edge>
    <edge id=":n2_0_1" function="internal">
        <lane id=":n2_0_1_0" index="0" speed="8.00" length="5.93" shape="507.20,746.58 503.35,746.03 501.60,744.98"/>
    </edge>
    <edge id=":n2_0_2" function="internal">
        <lane id=":n2_0_2_0" index="0" speed="3.65" length="2.34" shape="507.20,746.58 506.00,745.78 505.60,744.98"/>
    </edge>
    <edge id=":n2_0_9" function="internal">
        <lane id=":n2_0_9_0" index="0" speed="8.00" length="8.26" shape="501.60,744.98 500.60,744.38 498.95,741.63 498.40,737.78"/>
    </edge>
    <edge id=":n2_0_10" function="internal">
        <lane id=":n2_0_10_0" index="0" speed="3.65" length="2.34" shape="505.60,744.98 506.00,744.18 507.20,743.38"/>
    </edge>
    <edge id=":n2_0_3" function="internal">
        <lane id=":n2_0_3_0" index="0" speed="6.51" length="9.03" shape="501.60,737.78 501.95,740.23 503.00,741.98 504.75,743.03 507.20,743.38"/>
    </edge>
    <edge id=":n2_0_4" function="internal">
        <lane id=":n2_0_4_0" index="0" speed="8.00" length="14.19" shape="501.60,737.78 501.05,741.63 499.40,744.38 496.65,746.03 492.80,746.58"/>
    </edge>
    <edge id=":n2_0_5" function="internal">
        <lane id=":n2_0_5_0" index="0" speed="3.65" length="4.67" shape="501.60,737.78 500.80,738.98 500.00,739.38 499.20,738.98 498.40,737.78"/>
    </edge>
    <edge id=":n2_0_6" function="internal">
        <lane id=":n2_0_6_0" index="0" speed="6.51" length="9.03" shape="492.80,743.38 495.25,743.03 497.00,741.98 498.05,740.23 498.40,737.78"/>
    </edge>
    <edge id=":n2_0_7" function="internal">
        <lane id=":n2_0_7_0" index="0" speed="13.89" length="14.40" shape="492.80,743.38 507.20,743.38"/>
    </edge>
    <edge id=":n2_0_8" function="internal">
        <lane id=":n2_0_8_0" index="0" speed="3.65" length="2.34" shape="492.80,743.38 494.00,744.18 494.40,744.98"/>
    </edge>
    <edge id=":n2_0_11" function="internal">
        <lane id=":n2_0_11_0" index="0" speed="3.65" length="2.34" shape="494.40,744.98 494.00,745.78 492.80,746.58"/>
    </edge>
    <edge id=":n2_1_0" function="internal">
        <lane id=":n2_1_0_0" index="0" speed="6.51" length="9.03" shape="498.40,503.85 498.05,501.40 497.00,499.65 495.25,498.60 492.80,498.25"/>
    </edge>
    <edge id=":n2_1_1" function="internal">
        <lane id=":n2_1_1_0" index="0" speed="13.89" length="14.40" shape="498.40,503.85 498.40,489.45"/>
    </edge>
    <edge id=":n2_1_2" function="internal">
        <lane id=":n2_1_2_0" index="0" speed="8.00" length="14.19" shape="498.40,503.85 498.95,500.00 500.60,497.25 503.35,495.60 507.20,495.05"/>
    </edge>
    <edge id=":n2_1_3" function="internal">
        <lane id=":n2_1_3_0" index="0" speed="3.65" length="4.67" shape="498.40,503.85 499.20,502.65 500.00,502.25 500.80,502.65 501.60,503.85"/>
    </edge>
    <edge id=":n2_1_4" function="internal">
        <lane id=":n2_1_4_0" index="0" speed="6.51" length="9.03" shape="507.20,498.25 504.75,498.60 503.00,499.65 501.95,501.40 501.60,503.85"/>
    </edge>
    <edge id=":n2_1_5" function="internal">
        <lane id=":n2_1_5_0" index="0" speed="13.89" length="14.40" shape="507.20,498.25 492.80,498.25"/>
    </edge>
    <edge id=":n2_1_6" function="internal">
        <lane id=":n2_1_6_0" index="0" speed="8.00" length="5.93" shape="507.20,498.25 503.35,497.70 501.60,496.65"/>
    </edge>
    <edge id=":n2_1_7" function="internal">
        <lane id=":n2_1_7_0" index="0" speed="3.65" length="2.34" shape="507.20,498.25 506.00,497.45 505.60,496.65"/>
    </edge>
    <edge id=":n2_1_16" function="internal">
        <lane id=":n2_1_16_0" index="0" speed="8.00" length="8.26" shape="501.60,496.65 500.60,496.05 498.95,493.30 498.40,489.45"/>
    </edge>
    <edge id=":n2_1_17" function="internal">
        <lane id=":n2_1_17_0" index="0" speed="3.65" length="2.34" shape="505.60,496.65 506.00,495.85 507.20,495.05"/>
    </edge>
    <edge id=":n2_1_8" function="internal">
        <lane id=":n2_1_8_0" index="0" speed="6.51" length="9.03" shape="501.60,489.45 501.95,491.90 503.00,493.65 504.75,494.70 507.20,495.05"/>
    </edge>
    <edge id=":n2_1_9" function="internal">
        <lane id=":n2_1_9_0" index="0" speed="13.89" length="14.40" shape="501.60,489.45 501.60,503.85"/>
    </edge>
    <edge id=":n2_1_10" function="internal">
        <lane id=":n2_1_10_0" index="0" speed="8.00" length="14.19" shape="501.60,489.45 501.05,493.30 499.40,496.05 496.65,497.70 492.80,498.25"/>
    </edge>
    <edge id=":n2_1_11" function="internal">
        <lane id=":n2_1_11_0" index="0" speed="3.65" length="4.67" shape="501.60,489.45 500.80,490.65 500.00,491.05 499.20,490.65 498.40,489.45"/>
    </edge>
    <edge id=":n2_1_12" function="internal">
        <lane id=":n2_1_12_0" index="0" speed="6.51" length="9.03" shape="492.80,495.05 495.25,494.70 497.00,493.65 498.05,491.90 498.40,489.45"/>
    </edge>
    <edge id=":n2_1_13" function="internal">
        <lane id=":n2_1_13_0" index="0" speed="13.89" length="14.40" shape="492.80,495.05 507.20,495.05"/>
    </edge>
    <edge id=":n2_1_14" function="internal">
        <lane id=":n2_1_14_0" index="0" speed="8.00" length="5.93" shape="492.80,495.05 496.65,495.60 498.40,496.65"/>
    </edge>
    <edge id=":n2_1_15" function="internal">
        <lane id=":n2_1_15_0" index="0" speed="3.65" length="2.34" shape="492.80,495.05 494.00,495.85 494.40,496.65"/>
    </edge>
    <edge id=":n2_1_18" function="internal">
        <lane id=":n2_1_18_0" index="0" speed="8.00" length="8.26" shape="498.40,496.65 499.40,497.25 501.05,500.00 501.60,503.85"/>
    </edge>
    <edge id=":n2_1_19" function="internal">
        <lane id=":n2_1_19_0" index="0" speed="3.65" length="2.34" shape="494.40,496.65 494.00,497.45 492.80,498.25"/>
    </edge>
    <edge id=":n2_2_0" function="internal">
        <lane id=":n2_2_0_0" index="0" speed="6.51" length="9.03" shape="498.40,255.53 498.05,253.08 497.00,251.33 495.25,250.28 492.80,249.93"/>
    </edge>
    <edge id=":n2_2_1" function="internal">
        <lane id=":n2_2_1_0" index="0" speed="13.89" length="14.40" shape="498.40,255.53 498.40,241.13"/>
    </edge>
    <edge id=":n2_2_2" function="internal">
        <lane id=":n2_2_2_0" index="0" speed="8.00" length="14.19" shape="498.40,255.53 498.95,251.68 500.60,248.93 503.35,247.28 507.20,246.73"/>
    </edge>
    <edge id=":n2_2_3" function="internal">
        <lane id=":n2_2_3_0" index="0" speed="3.65" length="4.67" shape="498.40,255.53 499.20,254.33 500.00,253.93 500.80,254.33 501.60,255.53"/>
    </edge>
    <edge id=":n2_2_4" function="internal">
        <lane id=":n2_2_4_0" index="0" speed="6.51" length="9.03" shape="507.20,249.93 504.75,250.28 503.00,251.33 501.95,253.08 501.60,255.53"/>
    </edge>
    <edge id=":n2_2_5" function="internal">
        <lane id=":n2_2_5_0" index="0" speed="13.89" length="14.40" shape="507.20,249.93 492.80,249.93"/>
    </edge>
    <edge id=":n2_2_6" function="internal">
        <lane id=":n2_2_6_0" index="0" speed="8.00" length="5.93" shape="507.20,249.93 503.35,249.38 501.60,248.33"/>
    </edge>
    <edge id=":n2_2_7" function="internal">
        <lane id=":n2_2_7_0" index="0" speed="3.65" length="2.34" shape="507.20,249.93 506.00,249.13 505.60,248.33"/>
    </edge>
    <edge id=":n2_2_16" function="internal">
        <lane id=":n2_2_16_0" index="0" speed="8.00" length="8.26" shape="501.60,248.33 500.60,247.73 498.95,244.98 498.40,241.13"/>
    </edge>
    <edge id=":n2_2_17" function="internal">
        <lane id=":n2_2_17_0" index="0" speed="3.65" length="2.34" shape="505.60,248.33 506.00,247.53 507.20,246.73"/>
    </edge>
    <edge id=":n2_2_8" function="internal">
        <lane id=":n2_2_8_0" index="0" speed="6.51" length="9.03" shape="501.60,241.13 501.95,243.58 503.00,245.33 504.75,246.38 507.20,246.73"/>
    </edge>
    <edge id=":n2_2_9" function="internal">
        <lane id=":n2_2_9_0" index="0" speed="13.89" length="14.40" shape="501.60,241.13 501.60,255.53"/>
    </edge>
    <edge id=":n2_2_10" function="internal">
        <lane id=":n2_2_10_0" index="0" speed="8.00" length="14.19" shape="501.60,241.13 501.05,244.98 499.40,247.73 496.65,249.38 492.80,249.93"/>
    </edge>
    <edge id=":n2_2_11" function="internal">
        <lane id=":n2_2_11_0" index="0" speed="3.65" length="4.67" shape="501.60,241.13 500.80,242.33 500.00,242.73 499.20,242.33 498.40,241.13"/>
    </edge>
    <edge id=":n2_2_12" function="internal">
        <lane id=":n2_2_12_0" index="0" speed="6.51" length="9.03" shape="492.80,246.73 495.25,246.38 497.00,245.33 498.05,243.58 498.40,241.13"/>
    </edge>
    <edge id=":n2_2_13" function="internal">
        <lane id=":n2_2_13_0" index="0" speed="13.89" length="14.40" shape="492.80,246.73 507.20,246.73"/>
    </edge>
    <edge id=":n2_2_14" function="internal">
        <lane id=":n2_2_14_0" index="0" speed="8.00" length="5.93" shape="492.80,246.73 496.65,247.28 498.40,248.33"/>
    </edge>
    <edge id=":n2_2_15" function="internal">
        <lane id=":n2_2_15_0" index="0" speed="3.65" length="2.34" shape="492.80,246.73 494.00,247.53 494.40,248.33"/>
    </edge>
    <edge id=":n2_2_18" function="internal">
        <lane id=":n2_2_18_0" index="0" speed="8.00" length="8.26" shape="498.40,248.33 499.40,248.93 501.05,251.68 501.60,255.53"/>
    </edge>
    <edge id=":n2_2_19" function="internal">
        <lane id=":n2_2_19_0" index="0" speed="3.65" length="2.34" shape="494.40,248.33 494.00,249.13 492.80,249.93"/>
    </edge>
    <edge id=":n2_3_0" function="internal">
        <lane id=":n2_3_0_0" index="0" speed="6.51" length="9.03" shape="498.40,7.20 498.05,4.75 497.00,3.00 495.25,1.95 492.80,1.60"/>
    </edge>
    <edge id=":n2_3_1" function="internal">
        <lane id=":n2_3_1_0" index="0" speed="8.00" length="14.19" shape="498.40,7.20 498.95,3.35 500.60,0.60 503.35,-1.05 507.20,-1.60"/>
    </edge>
    <edge id=":n2_3_2" function="internal">
        <lane id=":n2_3_2_0" index="0" speed="3.65" length="4.67" shape="498.40,7.20 499.20,6.00 500.00,5.60 500.80,6.00 501.60,7.20"/>
    </edge>
    <edge id=":n2_3_3" function="internal">
        <lane id=":n2_3_3_0" index="0" speed="6.51" length="9.03" shape="507.20,1.60 504.75,1.95 503.00,3.00 501.95,4.75 501.60,7.20"/>
    </edge>
    <edge id=":n2_3_4" function="internal">
        <lane id=":n2_3_4_0" index="0" speed="13.89" length="14.40" shape="507.20,1.60 492.80,1.60"/>
    </edge>
    <edge id=":n2_3_5" function="internal">
        <lane id=":n2_3_5_0" index="0" speed="3.65" length="2.34" shape="507.20,1.60 506.00,0.80 505.60,0.00"/>
    </edge>
    <edge id=":n2_3_9" function="internal">
        <lane id=":n2_3_9_0" index="0" speed="3.65" length="2.34" shape="505.60,0.00 506.00,-0.80 507.20,-1.60"/>
    </edge>
    <edge id=":n2_3_6" function="internal">
        <lane id=":n2_3_6_0" index="0" speed="13.89" length="14.40" shape="492.80,-1.60 507.20,-1.60"/>
    </edge>
    <edge id=":n2_3_7" function="internal">
        <lane id=":n2_3_7_0" index="0" speed="8.00" length="5.93" shape="492.80,-1.60 496.65,-1.05 498.40,0.00"/>
    </edge>
    <edge id=":n2_3_8" function="internal">
        <lane id=":n2_3_8_0" index="0" speed="3.65" length="2.34" shape="492.80,-1.60 494.00,-0.80 494.40,0.00"/>
    </edge>
    <edge id=":n2_3_10" function="internal">
        <lane id=":n2_3_10_0" index="0" speed="8.00" length="8.26" shape="498.40,0.00 499.40,0.60 501.05,3.35 501.60,7.20"/>
    </edge>
    <edge id=":n2_3_11" function="internal">
        <lane id=":n2_3_11_0" index="0" speed="3.65" length="2.34" shape="494.40,0.00 494.00,0.80 492.80,1.60"/>
    </edge>
    <edge id=":n3_0_0" function="internal">
        <lane id=":n3_0_0_0" index="0" speed="6.08" length="7.74" shape="751.60,741.78 751.30,743.88 750.40,745.38 748.90,746.28 746.80,746.58"/>
    </edge>
    <edge id=":n3_0_1" function="internal">