[General]
scheduler-class = "inet::RealTimeScheduler"
sim-time-limit = 60s
network = simu5g.emulation.extclientserver.ExtClientServerExample

**.routingRecorder.enabled = false
**.networkConfiguratorModule = ""
**.fcsMode = "computed"
**.crcMode = "computed"

############### Statistics ##################
output-scalar-file = ${resultdir}/${configname}/${repetition}.sca
output-vector-file = ${resultdir}/${configname}/${repetition}.vec
seed-set = ${repetition}

################ Mobility parameters #####################
# *

**.mobility.constraintAreaMaxX = 1000m
**.mobility.constraintAreaMaxY = 1000m
**.mobility.constraintAreaMinX = 0m
**.mobility.constraintAreaMinY = 0m
**.mobility.constraintAreaMinZ = 0m
**.mobility.constraintAreaMaxZ = 0m
**.mobility.initFromDisplayString = false

############### Phy layer parameters ################
**.amcType = "NRAmc"
**.pilotMode = "ROBUST_CQI"
**.targetBler = 0.01
**.blerShift = 5
**.fbPeriod = 40tti

############### IPv4 configurator config #################
*.configurator.config = xmldoc("./demo.xml")

############### eNodeB configuration #################
*.gnb.mobility.initialX = 450m
*.gnb.mobility.initialY = 300m

############## ue configuration ##################
# connect the ue's NIC to the corresponding serving gnb
*.ue*.macCellId = 0
*.ue*.masterId = 0
*.ue*.nrMacCellId = 1
*.ue*.nrMasterId = 1

# ue position
*.ue*.mobility.typename = "StationaryMobility"
*.ue*.mobility.initialX = 450m
*.ue*.mobility.initialY = 350m

############### CA configuration ########################
*.carrierAggregation.numComponentCarriers = 1
*.carrierAggregation.componentCarrier[0].numerologyIndex = 0
*.carrierAggregation.componentCarrier[0].carrierFrequency = 2GHz
*.carrierAggregation.componentCarrier[0].numBands = 10

*.gnb.cellularNic.numCarriers = 1
*.gnb.cellularNic.channelModel[0].componentCarrierModule = "carrierAggregation.componentCarrier[0]"
*.ue.cellularNic.numNRCarriers = 1
*.ue.cellularNic.nrChannelModel[0].componentCarrierModule = "carrierAggregation.componentCarrier[0]"



#
# This configuration uses sockets to exchange packets with the real world
#
[Config ExtClientServer]

############## Routing configuration ##############
# configure routing tables of each network element. Each of them must include a route to the (real) client
*.router.ipv4.routingTable.routingFile = "routing/router.mrt"
*.upf.ipv4.routingTable.routingFile = "routing/upf.mrt"
*.gnb.ipv4.routingTable.routingFile = "routing/gnb.mrt"
*.ue.ipv4.routingTable.routingFile = "routing/ue.mrt"

############## Ext Interface configuration ##############
# equip the router with an External Ethernet interface
*.router.numEthInterfaces = 1
*.router.eth[0].typename = "ExtLowerEthernetInterface"
*.router.eth[0].device = "sim-veth1"

*.ue.numEthInterfaces = 1
*.ue.eth[0].typename = "ExtLowerEthernetInterface"
*.ue.eth[0].device = "sim-veth2"
*.ue.extHostAddress = "192.168.3.2"
*.ue.ipv4.forwarding = true

