[General]
sim-time-limit=5s
warmup-period=0s
repeat = 1
**.routingRecorder.enabled = false

############### Statistics ##################
output-scalar-file = ${resultdir}/${configname}/${iterationvars}-${repetition}.sca
output-vector-file = ${resultdir}/${configname}/${iterationvars}-${repetition}.vec
seed-set = ${repetition}
**.vector-recording = false

################ Mobility parameters #####################
**.mobility.constraintAreaMinZ = 0m
**.mobility.constraintAreaMaxZ = 0m


############### AMC MODULE PARAMETERS ###############
**.numBands = 50

############### IPv4 configurator config #################
*.configurator.config = xmldoc("./demo.xml")

# ----------------------------------------------------------------------------- #
# Config "D2DMulticast-1to2"
#
# In this configuration, a transmitting UE sends periodic alert messages to two
# users, located close to it.
#
[Config D2DMulticast-1to2]
network = simu5g.simulations.LTE.networks.SingleCell_D2DMulticast

### eNodeBs configuration ###
*.eNB.mobility.initFromDisplayString = false
*.eNB.mobility.initialX = 300m
*.eNB.mobility.initialY = 300m

### UEs configuration ###
*.numUeCell = 0
*.numUeD2D = 3

*.ue*[*].macCellId = 1
*.ue*[*].masterId = 1
*.ue*[*].mobility.initFromDisplayString = false

# Transmitter
*.ueD2D[0].mobility.initialX = 290m
*.ueD2D[0].mobility.initialY = 350m

# Receivers
*.ueD2D[1].mobility.initialX = 310m
*.ueD2D[1].mobility.initialY = 350m
*.ueD2D[2].mobility.initialX = 330m
*.ueD2D[2].mobility.initialY = 350m

### Traffic configuration ###
*.ueD2D[*].numApps = 1

# One-to-Many traffic between UEs (ueD2D[0] --> ueD2DRx[1..2])
# Transmitter
*.ueD2D[0].app[*].typename = "AlertSender"
*.ueD2D[0].app[*].localPort = 3088+ancestorIndex(0)
*.ueD2D[0].app[*].startTime = uniform(0s,0.02s)
*.ueD2D[0].app[*].stopTime = 4.9s
*.ueD2D[0].app[*].destAddress = "224.0.0.10"          # IP address of the multicast group
*.ueD2D[0].app[*].destPort = 1000

# Receivers (they must belong to the above multicast group (see demo.xml)
*.ueD2D[1..2].app[*].typename = "AlertReceiver"
*.ueD2D[1..2].app[*].localPort = 1000

# Enable D2D for the eNodeB and the UEs involved in direct communications
*.eNB*.cellularNic.typename = "LteNicEnbD2D"
*.ueD2D*[*].cellularNic.typename = "LteNicUeD2D"
**.amcMode = "D2D"

# --- Select CQI for D2D transmissions --- #
#
# One-to-Many communications work with fixed CQI values only. Set the parameter **.usePreconfiguredTxParams and
# select the desired CQI using the parameter **.d2dCqi
**.usePreconfiguredTxParams = true
**.d2dCqi = 7





# ----------------------------------------------------------------------------- #
# Config "D2DMulticast-1toM"
#
# In this configuration, a transmitting UE sends periodic alert messages to "numUEs"
# users. UEs are randomly deployed within the cell served by the eNodeB
#
[Config D2DMulticast-1toM]
network = simu5g.simulations.LTE.networks.SingleCell_D2DMulticast

### eNodeBs configuration ###
*.eNB.mobility.initFromDisplayString = false
*.eNB.mobility.initialX = 300m
*.eNB.mobility.initialY = 300m

### UEs configuration ###
*.numUeCell = 0
*.numUeD2D = ${numUEs=50}

*.ue*[*].macCellId = 1
*.ue*[*].masterId = 1
*.ue*[*].mobility.initFromDisplayString = false

*.ue*[*].mobility.initialX = uniform(200m,400m)
*.ue*[*].mobility.initialY = uniform(200m,400m)

### Traffic configuration ###
*.ueD2D[*].numApps = 1

# One-to-Many traffic between UEs (ueD2D[0] --> ueD2DRx[1..2])
# Transmitter
*.ueD2D[0].app[*].typename = "AlertSender"
*.ueD2D[0].app[*].localPort = 3088+ancestorIndex(0)
*.ueD2D[0].app[*].startTime = uniform(0s,0.02s)
*.ueD2D[0].app[*].destAddress = "224.0.0.10"          # IP address of the multicast group
*.ueD2D[0].app[*].destPort = 1000

# Receivers (they must belong to the above multicast group (see demo.xml)
*.ueD2D[1..49].app[*].typename = "AlertReceiver"
*.ueD2D[1..49].app[*].localPort = 1000

# Enable D2D for the eNodeB and the UEs involved in direct communications
*.eNB*.cellularNic.typename = "LteNicEnbD2D"
*.ueD2D*[*].cellularNic.typename = "LteNicUeD2D"
**.amcMode = "D2D"

# --- Select CQI for D2D transmissions --- #
#
# One-to-Many communications work with fixed CQI values only.Set the parameter **.usePreconfiguredTxParams and
# select the desired CQI using the parameter **.d2dCqi
**.usePreconfiguredTxParams = true
**.d2dCqi = ${cqi=3,5,7,9,11,13,15}

### PhyLayer parameters ###
**.cellularNic.channelModel[0].fading = false
**.cellularNic.channelModel[0].shadowing = false

output-scalar-file = ${resultdir}/${configname}/cqi=${cqi}-${repetition}.sca
output-vector-file = ${resultdir}/${configname}/cqi=${cqi}-${repetition}.vec




# ----------------------------------------------------------------------------- #
# Config "checkMulticastRange"
#
# In this configuration, a transmitting UE sends periodic alert messages to "numUEs"
# users. UEs are dropped at increasing distance from the transmitter to test its range.
# The enableMulticastRangeCheck parameters is set to prevent the system to send packets
# to out-of-range UEs.
#
[Config checkMulticastRange]
network = simu5g.simulations.LTE.networks.SingleCell_D2DMulticast

**.d2dCqi = ${cqi = 10}

### eNodeBs configuration ###
*.eNB.mobility.initFromDisplayString = false
*.eNB.mobility.initialX = 300m
*.eNB.mobility.initialY = 300m

### UEs configuration ###
*.numUeCell = 0
*.numUeD2D = ${numUEs=100}

*.ue*[*].macCellId = 1
*.ue*[*].masterId = 1
*.ue*[*].mobility.initFromDisplayString = false

**.ue*[*].mobility.typename = "LinearMobility"
**.ue*[*].mobility.speed = 0.1 mps

*.ueD2D[0].mobility.initialX = 300m
*.ueD2D[0].mobility.initialY = 350m

*.ueD2D[1..99].mobility.initialX = 300m
*.ueD2D[1..99].mobility.initialY = 350m+(ancestorIndex(1)*10m)

### Traffic configuration ###
*.ueD2D[*].numApps = 1

# One-to-Many traffic between UEs (ueD2D[0] --> ueD2DRx[1..2])
# Transmitter
*.ueD2D[0].app[*].typename = "AlertSender"
*.ueD2D[0].app[*].localPort = 3088+ancestorIndex(0)
*.ueD2D[0].app[*].startTime = uniform(0s,0.02s)
*.ueD2D[0].app[*].stopTime = 4.9s
*.ueD2D[0].app[*].destAddress = "224.0.0.10"          # IP address of the multicast group
*.ueD2D[0].app[*].destPort = 1000

# Receivers (they must belong to the above multicast group (see demo.xml)
*.ueD2D[1..99].app[*].typename = "AlertReceiver"
*.ueD2D[1..99].app[*].localPort = 1000

# Enable D2D for the eNodeB and the UEs involved in direct communications
*.eNB*.cellularNic.typename = "LteNicEnbD2D"
*.ueD2D*[*].cellularNic.typename = "LteNicUeD2D"
**.amcMode = "D2D"

# --- Select CQI for D2D transmissions --- #
#
# One-to-Many communications work with fixed CQI values only.Set the parameter **.usePreconfiguredTxParams and
# select the desired CQI using the parameter **.d2dCqi
**.usePreconfiguredTxParams = true

### PhyLayer parameters ###

**.cellularNic.channelModel[0].fading = ${fading = false , true }
**.cellularNic.channelModel[0].shadowing = ${shadowing = false , true }


**.phy.enableMulticastD2DRangeCheck = ${rangeCheck = true, false}
**.phy.multicastD2DRange = ${range = 500m , 800m , 1000m , 1500m , 2000m }

constraint = ($rangeCheck == true) || ( ($rangeCheck == false) && ($range == 500m) )
