<?xml version="1.0"?>
<!-- generated on 2014-07-10 16:02:37.990508 by $Id$ -->
<additional>

<vTypeDistribution id="vTypeDist">
<vType id="truck0_0" accel="2.00" decel="4.00" sigma="0.65" length="8.05" minGap="1.00" maxSpeed="22.84" vClass="transport" guiShape="transport" probability="0.001" />
<vType id="truck0_1" accel="2.00" decel="4.00" sigma="0.65" length="8.05" minGap="1.00" maxSpeed="23.36" vClass="transport" guiShape="transport" probability="0.001" />
<vType id="truck0_2" accel="2.00" decel="4.00" sigma="0.65" length="8.05" minGap="1.00" maxSpeed="25.10" vClass="transport" guiShape="transport" probability="0.001" />
<vType id="truck0_3" accel="2.00" decel="4.00" sigma="0.65" length="8.05" minGap="1.00" maxSpeed="24.52" vClass="transport" guiShape="transport" probability="0.001" />
<vType id="truck0_4" accel="2.00" decel="4.00" sigma="0.65" length="8.05" minGap="1.00" maxSpeed="23.10" vClass="transport" guiShape="transport" probability="0.001" />
<vType id="truck0_5" accel="2.00" decel="4.00" sigma="0.65" length="8.05" minGap="1.00" maxSpeed="23.36" vClass="transport" guiShape="transport" probability="0.001" />
<vType id="truck0_6" accel="2.00" decel="4.00" sigma="0.65" length="8.05" minGap="1.00" maxSpeed="24.30" vClass="transport" guiShape="transport" probability="0.001" />
<vType id="truck0_7" accel="2.00" decel="4.00" sigma="0.65" length="8.05" minGap="1.00" maxSpeed="25.16" vClass="transport" guiShape="transport" probability="0.001" />
<vType id="truck0_8" accel="2.00" decel="4.00" sigma="0.65" length="8.05" minGap="1.00" maxSpeed="24.52" vClass="transport" guiShape="transport" probability="0.001" />
<vType id="truck0_9" accel="2.00" decel="4.00" sigma="0.65" length="8.05" minGap="1.00" maxSpeed="23.84" vClass="transport" guiShape="transport" probability="0.001" />
<vType id="truck0_10" accel="2.00" decel="4.00" sigma="0.65" length="8.05" minGap="1.00" maxSpeed="24.65" vClass="transport" guiShape="transport" probability="0.001" />
<vType id="truck0_11" accel="2.00" decel="4.00" sigma="0.65" length="8.05" minGap="1.00" maxSpeed="24.19" vClass="transport" guiShape="transport" probability="0.001" />
<vType id="truck0_12" accel="2.00" decel="4.00" sigma="0.65" length="8.05" minGap="1.00" maxSpeed="24.28" vClass="transport" guiShape="transport" probability="0.001" />
<vType id="truck0_13" accel="2.00" decel="4.00" sigma="0.65" length="8.05" minGap="1.00" maxSpeed="24.00" vClass="transport" guiShape="transport" probability="0.001" />
<vType id="truck0_14" accel="2.00" decel="4.00" sigma="0.65" length="8.05" minGap="1.00" maxSpeed="24.29" vClass="transport" guiShape="transport" probability="0.001" />
<vType id="truck0_15" accel="2.00" decel="4.00" sigma="0.65" length="8.05" minGap="1.00" maxSpeed="24.22" vClass="transport" guiShape="transport" probability="0.001" />
<vType id="truck0_16" accel="2.00" decel="4.00" sigma="0.65" length="8.05" minGap="1.00" maxSpeed="24.44" vClass="transport" guiShape="transport" probability="0.001" />
<vType id="truck0_17" accel="2.00" decel="4.00" sigma="0.65" length="8.05" minGap="1.00" maxSpeed="23.56" vClass="transport" guiShape="transport" probability="0.001" />
<vType id="truck0_18" accel="2.00" decel="4.00" sigma="0.65" length="8.05" minGap="1.00" maxSpeed="23.30" vClass="transport" guiShape="transport" probability="0.001" />
<vType id="truck0_19" accel="2.00" decel="4.00" sigma="0.65" length="8.05" minGap="1.00" maxSpeed="24.10" vClass="transport" guiShape="transport" probability="0.001" />
<vType id="truck0_20" accel="2.00" decel="4.00" sigma="0.65" length="8.05" minGap="1.00" maxSpeed="23.25" vClass="transport" guiShape="transport" probability="0.001" />
<vType id="truck0_21" accel="2.00" decel="4.00" sigma="0.65" length="8.05" minGap="1.00" maxSpeed="23.05" vClass="transport" guiShape="transport" probability="0.001" />
<vType id="truck0_22" accel="2.00" decel="4.00" sigma="0.65" length="8.05" minGap="1.00" maxSpeed="23.17" vClass="transport" guiShape="transport" probability="0.001" />
<vType id="truck0_23" accel="2.00" decel="4.00" sigma="0.65" length="8.05" minGap="1.00" maxSpeed="22.56" vClass="transport" guiShape="transport" probability="0.001" />
<vType id="truck0_24" accel="2.00" decel="4.00" sigma="0.65" length="8.05" minGap="1.00" maxSpeed="23.41" vClass="transport" guiShape="transport" probability="0.001" />
<vType id="truck0_25" accel="2.00" decel="4.00" sigma="0.65" length="8.05" minGap="1.00" maxSpeed="23.22" vClass="transport" guiShape="transport" probability="0.001" />
<vType id="truck0_26" accel="2.00" decel="4.00" sigma="0.65" length="8.05" minGap="1.00" maxSpeed="22.92" vClass="transport" guiShape="transport" probability="0.001" />
<vType id="truck0_27" accel="2.00" decel="4.00" sigma="0.65" length="8.05" minGap="1.00" maxSpeed="23.14" vClass="transport" guiShape="transport" probability="0.001" />
<vType id="truck0_28" accel="2.00" decel="4.00" sigma="0.65" length="8.05" minGap="1.00" maxSpeed="24.53" vClass="transport" guiShape="transport" probability="0.001" />
<vType id="truck0_29" accel="2.00" decel="4.00" sigma="0.65" length="8.05" minGap="1.00" maxSpeed="23.21" vClass="transport" guiShape="transport" probability="0.001" />
<vType id="truck1_0" accel="1.50" decel="4.00" sigma="0.75" length="16.50" minGap="1.00" maxSpeed="22.58" vClass="transport" guiShape="transport/semitrailer" probability="0.001" />
<vType id="truck1_1" accel="1.50" decel="4.00" sigma="0.75" length="16.50" minGap="1.00" maxSpeed="22.94" vClass="transport" guiShape="transport/semitrailer" probability="0.001" />
<vType id="truck1_2" accel="1.50" decel="4.00" sigma="0.75" length="16.50" minGap="1.00" maxSpeed="23.75" vClass="transport" guiShape="transport/semitrailer" probability="0.001" />
<vType id="truck1_3" accel="1.50" decel="4.00" sigma="0.75" length="16.50" minGap="1.00" maxSpeed="24.26" vClass="transport" guiShape="transport/semitrailer" probability="0.001" />
<vType id="truck1_4" accel="1.50" decel="4.00" sigma="0.75" length="16.50" minGap="1.00" maxSpeed="24.93" vClass="transport" guiShape="transport/semitrailer" probability="0.001" />
<vType id="truck1_5" accel="1.50" decel="4.00" sigma="0.75" length="16.50" minGap="1.00" maxSpeed="24.12" vClass="transport" guiShape="transport/semitrailer" probability="0.001" />
<vType id="truck1_6" accel="1.50" decel="4.00" sigma="0.75" length="16.50" minGap="1.00" maxSpeed="22.71" vClass="transport" guiShape="transport/semitrailer" probability="0.001" />
<vType id="truck1_7" accel="1.50" decel="4.00" sigma="0.75" length="16.50" minGap="1.00" maxSpeed="24.27" vClass="transport" guiShape="transport/semitrailer" probability="0.001" />
<vType id="truck1_8" accel="1.50" decel="4.00" sigma="0.75" length="16.50" minGap="1.00" maxSpeed="23.52" vClass="transport" guiShape="transport/semitrailer" probability="0.001" />
<vType id="truck1_9" accel="1.50" decel="4.00" sigma="0.75" length="16.50" minGap="1.00" maxSpeed="23.66" vClass="transport" guiShape="transport/semitrailer" probability="0.001" />
<vType id="truck1_10" accel="1.50" decel="4.00" sigma="0.75" length="16.50" minGap="1.00" maxSpeed="24.08" vClass="transport" guiShape="transport/semitrailer" probability="0.001" />
<vType id="truck1_11" accel="1.50" decel="4.00" sigma="0.75" length="16.50" minGap="1.00" maxSpeed="22.45" vClass="transport" guiShape="transport/semitrailer" probability="0.001" />
<vType id="truck1_12" accel="1.50" decel="4.00" sigma="0.75" length="16.50" minGap="1.00" maxSpeed="23.81" vClass="transport" guiShape="transport/semitrailer" probability="0.001" />
<vType id="truck1_13" accel="1.50" decel="4.00" sigma="0.75" length="16.50" minGap="1.00" maxSpeed="23.35" vClass="transport" guiShape="transport/semitrailer" probability="0.001" />
<vType id="truck1_14" accel="1.50" decel="4.00" sigma="0.75" length="16.50" minGap="1.00" maxSpeed="23.00" vClass="transport" guiShape="transport/semitrailer" probability="0.001" />
<vType id="truck1_15" accel="1.50" decel="4.00" sigma="0.75" length="16.50" minGap="1.00" maxSpeed="23.65" vClass="transport" guiShape="transport/semitrailer" probability="0.001" />
<vType id="truck1_16" accel="1.50" decel="4.00" sigma="0.75" length="16.50" minGap="1.00" maxSpeed="23.79" vClass="transport" guiShape="transport/semitrailer" probability="0.001" />
<vType id="truck1_17" accel="1.50" decel="4.00" sigma="0.75" length="16.50" minGap="1.00" maxSpeed="22.84" vClass="transport" guiShape="transport/semitrailer" probability="0.001" />
<vType id="truck1_18" accel="1.50" decel="4.00" sigma="0.75" length="16.50" minGap="1.00" maxSpeed="22.33" vClass="transport" guiShape="transport/semitrailer" probability="0.001" />
<vType id="truck1_19" accel="1.50" decel="4.00" sigma="0.75" length="16.50" minGap="1.00" maxSpeed="24.99" vClass="transport" guiShape="transport/semitrailer" probability="0.001" />
<vType id="truck1_20" accel="1.50" decel="4.00" sigma="0.75" length="16.50" minGap="1.00" maxSpeed="23.55" vClass="transport" guiShape="transport/semitrailer" probability="0.001" />
<vType id="truck1_21" accel="1.50" decel="4.00" sigma="0.75" length="16.50" minGap="1.00" maxSpeed="22.44" vClass="transport" guiShape="transport/semitrailer" probability="0.001" />
<vType id="truck1_22" accel="1.50" decel="4.00" sigma="0.75" length="16.50" minGap="1.00" maxSpeed="23.91" vClass="transport" guiShape="transport/semitrailer" probability="0.001" />
<vType id="truck1_23" accel="1.50" decel="4.00" sigma="0.75" length="16.50" minGap="1.00" maxSpeed="22.28" vClass="transport" guiShape="transport/semitrailer" probability="0.001" />
<vType id="truck1_24" accel="1.50" decel="4.00" sigma="0.75" length="16.50" minGap="1.00" maxSpeed="24.32" vClass="transport" guiShape="transport/semitrailer" probability="0.001" />
<vType id="truck1_25" accel="1.50" decel="4.00" sigma="0.75" length="16.50" minGap="1.00" maxSpeed="24.94" vClass="transport" guiShape="transport/semitrailer" probability="0.001" />
<vType id="truck1_26" accel="1.50" decel="4.00" sigma="0.75" length="16.50" minGap="1.00" maxSpeed="23.76" vClass="transport" guiShape="transport/semitrailer" probability="0.001" />
<vType id="truck1_27" accel="1.50" decel="4.00" sigma="0.75" length="16.50" minGap="1.00" maxSpeed="23.98" vClass="transport" guiShape="transport/semitrailer" probability="0.001" />
<vType id="truck1_28" accel="1.50" decel="4.00" sigma="0.75" length="16.50" minGap="1.00" maxSpeed="22.56" vClass="transport" guiShape="transport/semitrailer" probability="0.001" />
<vType id="truck1_29" accel="1.50" decel="4.00" sigma="0.75" length="16.50" minGap="1.00" maxSpeed="23.88" vClass="transport" guiShape="transport/semitrailer" probability="0.001" />
<vType id="truck2_0" accel="1.50" decel="4.00" sigma="0.85" length="18.75" minGap="1.00" maxSpeed="23.81" vClass="transport" guiShape="transport/trailer" probability="0.001" />
<vType id="truck2_1" accel="1.50" decel="4.00" sigma="0.85" length="18.75" minGap="1.00" maxSpeed="24.15" vClass="transport" guiShape="transport/trailer" probability="0.001" />
<vType id="truck2_2" accel="1.50" decel="4.00" sigma="0.85" length="18.75" minGap="1.00" maxSpeed="23.23" vClass="transport" guiShape="transport/trailer" probability="0.001" />
<vType id="truck2_3" accel="1.50" decel="4.00" sigma="0.85" length="18.75" minGap="1.00" maxSpeed="23.42" vClass="transport" guiShape="transport/trailer" probability="0.001" />
<vType id="truck2_4" accel="1.50" decel="4.00" sigma="0.85" length="18.75" minGap="1.00" maxSpeed="23.26" vClass="transport" guiShape="transport/trailer" probability="0.001" />
<vType id="truck2_5" accel="1.50" decel="4.00" sigma="0.85" length="18.75" minGap="1.00" maxSpeed="21.96" vClass="transport" guiShape="transport/trailer" probability="0.001" />
<vType id="truck2_6" accel="1.50" decel="4.00" sigma="0.85" length="18.75" minGap="1.00" maxSpeed="23.43" vClass="transport" guiShape="transport/trailer" probability="0.001" />
<vType id="truck2_7" accel="1.50" decel="4.00" sigma="0.85" length="18.75" minGap="1.00" maxSpeed="23.86" vClass="transport" guiShape="transport/trailer" probability="0.001" />
<vType id="truck2_8" accel="1.50" decel="4.00" sigma="0.85" length="18.75" minGap="1.00" maxSpeed="22.36" vClass="transport" guiShape="transport/trailer" probability="0.001" />
<vType id="truck2_9" accel="1.50" decel="4.00" sigma="0.85" length="18.75" minGap="1.00" maxSpeed="24.26" vClass="transport" guiShape="transport/trailer" probability="0.001" />
<vType id="truck2_10" accel="1.50" decel="4.00" sigma="0.85" length="18.75" minGap="1.00" maxSpeed="22.67" vClass="transport" guiShape="transport/trailer" probability="0.001" />
<vType id="truck2_11" accel="1.50" decel="4.00" sigma="0.85" length="18.75" minGap="1.00" maxSpeed="23.34" vClass="transport" guiShape="transport/trailer" probability="0.001" />
<vType id="truck2_12" accel="1.50" decel="4.00" sigma="0.85" length="18.75" minGap="1.00" maxSpeed="23.16" vClass="transport" guiShape="transport/trailer" probability="0.001" />
<vType id="truck2_13" accel="1.50" decel="4.00" sigma="0.85" length="18.75" minGap="1.00" maxSpeed="23.54" vClass="transport" guiShape="transport/trailer" probability="0.001" />
<vType id="truck2_14" accel="1.50" decel="4.00" sigma="0.85" length="18.75" minGap="1.00" maxSpeed="22.58" vClass="transport" guiShape="transport/trailer" probability="0.001" />
<vType id="truck2_15" accel="1.50" decel="4.00" sigma="0.85" length="18.75" minGap="1.00" maxSpeed="23.58" vClass="transport" guiShape="transport/trailer" probability="0.001" />
<vType id="truck2_16" accel="1.50" decel="4.00" sigma="0.85" length="18.75" minGap="1.00" maxSpeed="24.66" vClass="transport" guiShape="transport/trailer" probability="0.001" />
<vType id="truck2_17" accel="1.50" decel="4.00" sigma="0.85" length="18.75" minGap="1.00" maxSpeed="21.99" vClass="transport" guiShape="transport/trailer" probability="0.001" />
<vType id="truck2_18" accel="1.50" decel="4.00" sigma="0.85" length="18.75" minGap="1.00" maxSpeed="22.63" vClass="transport" guiShape="transport/trailer" probability="0.001" />
<vType id="truck2_19" accel="1.50" decel="4.00" sigma="0.85" length="18.75" minGap="1.00" maxSpeed="23.99" vClass="transport" guiShape="transport/trailer" probability="0.001" />
<vType id="truck2_20" accel="1.50" decel="4.00" sigma="0.85" length="18.75" minGap="1.00" maxSpeed="24.06" vClass="transport" guiShape="transport/trailer" probability="0.001" />
<vType id="truck2_21" accel="1.50" decel="4.00" sigma="0.85" length="18.75" minGap="1.00" maxSpeed="24.25" vClass="transport" guiShape="transport/trailer" probability="0.001" />
<vType id="truck2_22" accel="1.50" decel="4.00" sigma="0.85" length="18.75" minGap="1.00" maxSpeed="24.30" vClass="transport" guiShape="transport/trailer" probability="0.001" />
<vType id="truck2_23" accel="1.50" decel="4.00" sigma="0.85" length="18.75" minGap="1.00" maxSpeed="22.36" vClass="transport" guiShape="transport/trailer" probability="0.001" />
<vType id="truck2_24" accel="1.50" decel="4.00" sigma="0.85" length="18.75" minGap="1.00" maxSpeed="22.70" vClass="transport" guiShape="transport/trailer" probability="0.001" />
<vType id="truck2_25" accel="1.50" decel="4.00" sigma="0.85" length="18.75" minGap="1.00" maxSpeed="22.95" vClass="transport" guiShape="transport/trailer" probability="0.001" />
<vType id="truck2_26" accel="1.50" decel="4.00" sigma="0.85" length="18.75" minGap="1.00" maxSpeed="24.51" vClass="transport" guiShape="transport/trailer" probability="0.001" />
<vType id="truck2_27" accel="1.50" decel="4.00" sigma="0.85" length="18.75" minGap="1.00" maxSpeed="22.02" vClass="transport" guiShape="transport/trailer" probability="0.001" />
<vType id="truck2_28" accel="1.50" decel="4.00" sigma="0.85" length="18.75" minGap="1.00" maxSpeed="22.12" vClass="transport" guiShape="transport/trailer" probability="0.001" />
<vType id="truck2_29" accel="1.50" decel="4.00" sigma="0.85" length="18.75" minGap="1.00" maxSpeed="22.80" vClass="transport" guiShape="transport/trailer" probability="0.001" />
<vType id="truck2_30" accel="1.50" decel="4.00" sigma="0.85" length="18.75" minGap="1.00" maxSpeed="23.24" vClass="transport" guiShape="transport/trailer" probability="0.001" />
<vType id="truck2_31" accel="1.50" decel="4.00" sigma="0.85" length="18.75" minGap="1.00" maxSpeed="23.32" vClass="transport" guiShape="transport/trailer" probability="0.001" />
<vType id="truck2_32" accel="1.50" decel="4.00" sigma="0.85" length="18.75" minGap="1.00" maxSpeed="23.80" vClass="transport" guiShape="transport/trailer" probability="0.001" />
<vType id="truck2_33" accel="1.50" decel="4.00" sigma="0.85" length="18.75" minGap="1.00" maxSpeed="23.79" vClass="transport" guiShape="transport/trailer" probability="0.001" />
<vType id="truck2_34" accel="1.50" decel="4.00" sigma="0.85" length="18.75" minGap="1.00" maxSpeed="23.95" vClass="transport" guiShape="transport/trailer" probability="0.001" />
<vType id="truck2_35" accel="1.50" decel="4.00" sigma="0.85" length="18.75" minGap="1.00" maxSpeed="24.26" vClass="transport" guiShape="transport/trailer" probability="0.001" />
<vType id="truck2_36" accel="1.50" decel="4.00" sigma="0.85" length="18.75" minGap="1.00" maxSpeed="23.39" vClass="transport" guiShape="transport/trailer" probability="0.001" />
<vType id="truck2_37" accel="1.50" decel="4.00" sigma="0.85" length="18.75" minGap="1.00" maxSpeed="22.93" vClass="transport" guiShape="transport/trailer" probability="0.001" />
<vType id="truck2_38" accel="1.50" decel="4.00" sigma="0.85" length="18.75" minGap="1.00" maxSpeed="22.54" vClass="transport" guiShape="transport/trailer" probability="0.001" />
<vType id="truck2_39" accel="1.50" decel="4.00" sigma="0.85" length="18.75" minGap="1.00" maxSpeed="22.27" vClass="transport" guiShape="transport/trailer" probability="0.001" />
<vType id="car0_0" accel="2.60" decel="4.00" sigma="0.35" length="4.00" minGap="1.00" maxSpeed="32.11" vClass="passenger" guiShape="passenger" probability="0.001" />
<vType id="car0_1" accel="2.60" decel="4.00" sigma="0.35" length="4.00" minGap="1.00" maxSpeed="34.17" vClass="passenger" guiShape="passenger" probability="0.001" />
<vType id="car0_2" accel="2.60" decel="4.00" sigma="0.35" length="4.00" minGap="1.00" maxSpeed="32.83" vClass="passenger" guiShape="passenger" probability="0.001" />
<vType id="car0_3" accel="2.60" decel="4.00" sigma="0.35" length="4.00" minGap="1.00" maxSpeed="35.59" vClass="passenger" guiShape="passenger" probability="0.001" />
<vType id="car0_4" accel="2.60" decel="4.00" sigma="0.35" length="4.00" minGap="1.00" maxSpeed="34.32" vClass="passenger" guiShape="passenger" probability="0.001" />
<vType id="car0_5" accel="2.60" decel="4.00" sigma="0.35" length="4.00" minGap="1.00" maxSpeed="34.65" vClass="passenger" guiShape="passenger" probability="0.001" />
<vType id="car0_6" accel="2.60" decel="4.00" sigma="0.35" length="4.00" minGap="1.00" maxSpeed="36.05" vClass="passenger" guiShape="passenger" probability="0.001" />
<vType id="car0_7" accel="2.60" decel="4.00" sigma="0.35" length="4.00" minGap="1.00" maxSpeed="31.05" vClass="passenger" guiShape="passenger" probability="0.001" />
<vType id="car0_8" accel="2.60" decel="4.00" sigma="0.35" length="4.00" minGap="1.00" maxSpeed="36.48" vClass="passenger" guiShape="passenger" probability="0.001" />
<vType id="car0_9" accel="2.60" decel="4.00" sigma="0.35" length="4.00" minGap="1.00" maxSpeed="34.42" vClass="passenger" guiShape="passenger" probability="0.001" />
<vType id="car0_10" accel="2.60" decel="4.00" sigma="0.35" length="4.00" minGap="1.00" maxSpeed="32.13" vClass="passenger" guiShape="passenger" probability="0.001" />
<vType id="car0_11" accel="2.60" decel="4.00" sigma="0.35" length="4.00" minGap="1.00" maxSpeed="31.27" vClass="passenger" guiShape="passenger" probability="0.001" />
<vType id="car0_12" accel="2.60" decel="4.00" sigma="0.35" length="4.00" minGap="1.00" maxSpeed="33.34" vClass="passenger" guiShape="passenger" probability="0.001" />
<vType id="car0_13" accel="2.60" decel="4.00" sigma="0.35" length="4.00" minGap="1.00" maxSpeed="30.91" vClass="passenger" guiShape="passenger" probability="0.001" />
<vType id="car0_14" accel="2.60" decel="4.00" sigma="0.35" length="4.00" minGap="1.00" maxSpeed="34.34" vClass="passenger" guiShape="passenger" probability="0.001" />
<vType id="car0_15" accel="2.60" decel="4.00" sigma="0.35" length="4.00" minGap="1.00" maxSpeed="31.77" vClass="passenger" guiShape="passenger" probability="0.001" />
<vType id="car0_16" accel="2.60" decel="4.00" sigma="0.35" length="4.00" minGap="1.00" maxSpeed="31.34" vClass="passenger" guiShape="passenger" probability="0.001" />
<vType id="car0_17" accel="2.60" decel="4.00" sigma="0.35" length="4.00" minGap="1.00" maxSpeed="32.52" vClass="passenger" guiShape="passenger" probability="0.001" />
<vType id="car0_18" accel="2.60" decel="4.00" sigma="0.35" length="4.00" minGap="1.00" maxSpeed="34.11" vClass="passenger" guiShape="passenger" probability="0.001" />
<vType id="car0_19" accel="2.60" decel="4.00" sigma="0.35" length="4.00" minGap="1.00" maxSpeed="36.58" vClass="passenger" guiShape="passenger" probability="0.001" />
<vType id="car0_20" accel="2.60" decel="4.00" sigma="0.35" length="4.00" minGap="1.00" maxSpeed="30.41" vClass="passenger" guiShape="passenger" probability="0.001" />
<vType id="car0_21" accel="2.60" decel="4.00" sigma="0.35" length="4.00" minGap="1.00" maxSpeed="30.84" vClass="passenger" guiShape="passenger" probability="0.001" />
<vType id="car0_22" accel="2.60" decel="4.00" sigma="0.35" length="4.00" minGap="1.00" maxSpeed="33.25" vClass="passenger" guiShape="passenger" probability="0.001" />
<vType id="car0_23" accel="2.60" decel="4.00" sigma="0.35" length="4.00" minGap="1.00" maxSpeed="37.26" vClass="passenger" guiShape="passenger" probability="0.001" />
<vType id="car0_24" accel="2.60" decel="4.00" sigma="0.35" length="4.00" minGap="1.00" maxSpeed="30.93" vClass="passenger" guiShape="passenger" probability="0.001" />
<vType id="car0_25" accel="2.60" decel="4.00" sigma="0.35" length="4.00" minGap="1.00" maxSpeed="33.26" vClass="passenger" guiShape="passenger" probability="0.001" />
<vType id="car0_26" accel="2.60" decel="4.00" sigma="0.35" length="4.00" minGap="1.00" maxSpeed="37.07" vClass="passenger" guiShape="passenger" probability="0.001" />
<vType id="car0_27" accel="2.60" decel="4.00" sigma="0.35" length="4.00" minGap="1.00" maxSpeed="31.64" vClass="passenger" guiShape="passenger" probability="0.001" />
<vType id="car0_28" accel="2.60" decel="4.00" sigma="0.35" length="4.00" minGap="1.00" maxSpeed="36.76" vClass="passenger" guiShape="passenger" probability="0.001" />
<vType id="car0_29" accel="2.60" decel="4.00" sigma="0.35" length="4.00" minGap="1.00" maxSpeed="30.36" vClass="passenger" guiShape="passenger" probability="0.001" />
<vType id="car0_30" accel="2.60" decel="4.00" sigma="0.35" length="4.00" minGap="1.00" maxSpeed="36.55" vClass="passenger" guiShape="passenger" probability="0.001" />
<vType id="car0_31" accel="2.60" decel="4.00" sigma="0.35" length="4.00" minGap="1.00" maxSpeed="33.77" vClass="passenger" guiShape="passenger" probability="0.001" />
<vType id="car0_32" accel="2.60" decel="4.00" sigma="0.35" length="4.00" minGap="1.00" maxSpeed="34.78" vClass="passenger" guiShape="passenger" probability="0.001" />
<vType id="car0_33" accel="2.60" decel="4.00" sigma="0.35" length="4.00" minGap="1.00" maxSpeed="36.78" vClass="passenger" guiShape="passenger" probability="0.001" />
<vType id="car0_34" accel="2.60" decel="4.00" sigma="0.35" length="4.00" minGap="1.00" maxSpeed="31.74" vClass="passenger" guiShape="passenger" probability="0.001" />
<vType id="car0_35" accel="2.60" decel="4.00" sigma="0.35" length="4.00" minGap="1.00" maxSpeed="32.19" vClass="passenger" guiShape="passenger" probability="0.001" />
<vType id="car0_36" accel="2.60" decel="4.00" sigma="0.35" length="4.00" minGap="1.00" maxSpeed="34.64" vClass="passenger" guiShape="passenger" probability="0.001" />
<vType id="car0_37" accel="2.60" decel="4.00" sigma="0.35" length="4.00" minGap="1.00" maxSpeed="32.49" vClass="passenger" guiShape="passenger" probability="0.001" />
<vType id="car0_38" accel="2.60" decel="4.00" sigma="0.35" length="4.00" minGap="1.00" maxSpeed="36.96" vClass="passenger" guiShape="passenger" probability="0.001" />
<vType id="car0_39" accel="2.60" decel="4.00" sigma="0.35" length="4.00" minGap="1.00" maxSpeed="37.08" vClass="passenger" guiShape="passenger" probability="0.001" />
<vType id="car0_40" accel="2.60" decel="4.00" sigma="0.35" length="4.00" minGap="1.00" maxSpeed="36.48" vClass="passenger" guiShape="passenger" probability="0.001" />
<vType id="car0_41" accel="2.60" decel="4.00" sigma="0.35" length="4.00" minGap="1.00" maxSpeed="35.84" vClass="passenger" guiShape="passenger" probability="0.001" />
<vType id="car0_42" accel="2.60" decel="4.00" sigma="0.35" length="4.00" minGap="1.00" maxSpeed="31.80" vClass="passenger" guiShape="passenger" probability="0.001" />
<vType id="car0_43" accel="2.60" decel="4.00" sigma="0.35" length="4.00" minGap="1.00" maxSpeed="34.07" vClass="passenger" guiShape="passenger" probability="0.001" />
<vType id="car0_44" accel="2.60" decel="4.00" sigma="0.35" length="4.00" minGap="1.00" maxSpeed="30.74" vClass="passenger" guiShape="passenger" probability="0.001" />
<vType id="car0_45" accel="2.60" decel="4.00" sigma="0.35" length="4.00" minGap="1.00" maxSpeed="32.75" vClass="passenger" guiShape="passenger" probability="0.001" />
<vType id="car0_46" accel="2.60" decel="4.00" sigma="0.35" length="4.00" minGap="1.00" maxSpeed="34.49" vClass="passenger" guiShape="passenger" probability="0.001" />
<vType id="car0_47" accel="2.60" decel="4.00" sigma="0.35" length="4.00" minGap="1.00" maxSpeed="33.85" vClass="passenger" guiShape="passenger" probability="0.001" />
<vType id="car0_48" accel="2.60" decel="4.00" sigma="0.35" length="4.00" minGap="1.00" maxSpeed="31.40" vClass="passenger" guiShape="passenger" probability="0.001" />
<vType id="car0_49" accel="2.60" decel="4.00" sigma="0.35" length="4.00" minGap="1.00" maxSpeed="30.38" vClass="passenger" guiShape="passenger" probability="0.001" />
<vType id="car0_50" accel="2.60" decel="4.00" sigma="0.35" length="4.00" minGap="1.00" maxSpeed="36.90" vClass="passenger" guiShape="passenger" probability="0.001" />
<vType id="car0_51" accel="2.60" decel="4.00" sigma="0.35" length="4.00" minGap="1.00" maxSpeed="34.57" vClass="passenger" guiShape="passenger" probability="0.001" />
<vType id="car0_52" accel="2.60" decel="4.00" sigma="0.35" length="4.00" minGap="1.00" maxSpeed="32.54" vClass="passenger" guiShape="passenger" probability="0.001" />
<vType id="car0_53" accel="2.60" decel="4.00" sigma="0.35" length="4.00" minGap="1.00" maxSpeed="31.15" vClass="passenger" guiShape="passenger" probability="0.001" />
<vType id="car0_54" accel="2.60" decel="4.00" sigma="0.35" length="4.00" minGap="1.00" maxSpeed="36.91" vClass="passenger" guiShape="passenger" probability="0.001" />
<vType id="car0_55" accel="2.60" decel="4.00" sigma="0.35" length="4.00" minGap="1.00" maxSpeed="34.72" vClass="passenger" guiShape="passenger" probability="0.001" />
<vType id="car0_56" accel="2.60" decel="4.00" sigma="0.35" length="4.00" minGap="1.00" maxSpeed="36.51" vClass="passenger" guiShape="passenger" probability="0.001" />
<vType id="car0_57" accel="2.60" decel="4.00" sigma="0.35" length="4.00" minGap="1.00" maxSpeed="32.28" vClass="passenger" guiShape="passenger" probability="0.001" />
<vType id="car0_58" accel="2.60" decel="4.00" sigma="0.35" length="4.00" minGap="1.00" maxSpeed="35.15" vClass="passenger" guiShape="passenger" probability="0.001" />
<vType id="car0_59" accel="2.60" decel="4.00" sigma="0.35" length="4.00" minGap="1.00" maxSpeed="30.59" vClass="passenger" guiShape="passenger" probability="0.001" />
<vType id="car0_60" accel="2.60" decel="4.00" sigma="0.35" length="4.00" minGap="1.00" maxSpeed="35.17" vClass="passenger" guiShape="passenger" probability="0.001" />
<vType id="car0_61" accel="2.60" decel="4.00" sigma="0.35" length="4.00" minGap="1.00" maxSpeed="34.83" vClass="passenger" guiShape="passenger" probability="0.001" />
<vType id="car0_62" accel="2.60" decel="4.00" sigma="0.35" length="4.00" minGap="1.00" maxSpeed="34.10" vClass="passenger" guiShape="passenger" probability="0.001" />
<vType id="car0_63" accel="2.60" decel="4.00" sigma="0.35" length="4.00" minGap="1.00" maxSpeed="37.00" vClass="passenger" guiShape="passenger" probability="0.001" />
<vType id="car0_64" accel="2.60" decel="4.00" sigma="0.35" length="4.00" minGap="1.00" maxSpeed="35.53" vClass="passenger" guiShape="passenger" probability="0.001" />
<vType id="car0_65" accel="2.60" decel="4.00" sigma="0.35" length="4.00" minGap="1.00" maxSpeed="36.63" vClass="passenger" guiShape="passenger" probability="0.001" />
<vType id="car0_66" accel="2.60" decel="4.00" sigma="0.35" length="4.00" minGap="1.00" maxSpeed="34.55" vClass="passenger" guiShape="passenger" probability="0.001" />
<vType id="car0_67" accel="2.60" decel="4.00" sigma="0.35" length="4.00" minGap="1.00" maxSpeed="32.82" vClass="passenger" guiShape="passenger" probability="0.001" />
<vType id="car0_68" accel="2.60" decel="4.00" sigma="0.35" length="4.00" minGap="1.00" maxSpeed="33.76" vClass="passenger" guiShape="passenger" probability="0.001" />
<vType id="car0_69" accel="2.60" decel="4.00" sigma="0.35" length="4.00" minGap="1.00" maxSpeed="34.99" vClass="passenger" guiShape="passenger" probability="0.001" />
<vType id="car0_70" accel="2.60" decel="4.00" sigma="0.35" length="4.00" minGap="1.00" maxSpeed="36.27" vClass="passenger" guiShape="passenger" probability="0.001" />
<vType id="car0_71" accel="2.60" decel="4.00" sigma="0.35" length="4.00" minGap="1.00" maxSpeed="31.62" vClass="passenger" guiShape="passenger" probability="0.001" />
<vType id="car0_72" accel="2.60" decel="4.00" sigma="0.35" length="4.00" minGap="1.00" maxSpeed="37.01" vClass="passenger" guiShape="passenger" probability="0.001" />