[General]
print-undisposed = true
**.vector-recording = false
**.routingRecorder.enabled = false

#============= Simulation parameters ================
sim-time-limit=5s
warmup-period=2s
repeat = 1

#============= Mobility parameters ================
**.mobility.constraintAreaMinZ = 0m
**.mobility.constraintAreaMaxZ = 0m

#============= AMC module parameters ================
**.rbAllocationType = "localized"
**.numBands = 6

#============= Statistics ================
output-scalar-file = ${resultdir}/${configname}/${repetition}.sca
output-vector-file = ${resultdir}/${configname}/${repetition}.vec
seed-set = ${repetition}

############### IPv4 configurator config #################
*.configurator.config = xmldoc("./demo.xml")


#####################################
# SingleCell Configuration			#
#####################################
[Config SingleCell]
network = simu5g.simulations.LTE.networks.SingleCell

*.numUe = ${numUEs=5}

#============= Amount of applications ================
*.ue[*].numApps = 1
*.server.numApps = ${numUEs} # applications on server should be equal to (numUEs)*(ue[*].numUdpApps)

# connect each UE to the eNB
**.ue[*].macCellId = 1
**.ue[*].masterId = 1

#============= Positioning and mobility ============
*.eNB.mobility.initFromDisplayString = false
*.eNB.mobility.initialX = 300m
*.eNB.mobility.initialY = 300m
*.ue[*].mobility.constraintAreaMaxX = 600m
*.ue[*].mobility.constraintAreaMaxY = 600m
*.ue[*].mobility.constraintAreaMinX = 0m
*.ue[*].mobility.constraintAreaMinY = 0m
*.ue[*].mobility.initFromDisplayString = false
*.ue[*].mobility.initialX = uniform(0m,600m)
*.ue[*].mobility.initialY = uniform(0m,600m)
*.ue[*].mobility.speed = 1mps
*.ue[*].mobility.typename = "LinearMobility"
#------------------------------------#

##################################################
# SingleCell Configuration			             #
# - Add DL traffic to the parent configuration   #
##################################################
[Config SingleCell-DL]
extends=SingleCell

*.ue[*].app[0].typename = "VoIPReceiver"
*.server.app[*].destAddress = "ue["+string(ancestorIndex(0))+"]" # obtain the address of the client by reading its index in the array of udpApps
*.server.app[*].localPort = 3088+ancestorIndex(0)
*.server.app[*].typename = "VoIPSender"
*.server.app[*].startTime = uniform(0s,0.02s)
#------------------------------------#

##################################################
# SingleCell Configuration			             #
# - Add UL traffic to the parent configuration   #
##################################################
[Config SingleCell-UL]
extends=SingleCell

*.server.app[*].typename = "VoIPReceiver"
*.server.app[*].localPort = 3000+ancestorIndex(0)
*.ue[*].app[*].destAddress = "server"
*.ue[*].app[*].destPort = 3000+ancestorIndex(1)
*.ue[*].app[*].localPort = 3088
*.ue[*].app[*].typename = "VoIPSender"
*.ue[*].app[*].startTime = uniform(0s,0.02s)
#------------------------------------#


#####################################
# MultiCell Configuration			#
#####################################
[Config MultiCell]
network = simu5g.simulations.LTE.networks.MultiCell

#============= Amount of applications ================
*.ue*.numApps = 1
*.server.numApps = 4

# connect each UE to its serving eNB
**.ue1*.macCellId = 1
**.ue1*.masterId = 1
**.ue2*.macCellId = 2
**.ue2*.masterId = 2

#============= Positioning and mobility ============
*.eNodeB*.mobility.initFromDisplayString = false
*.eNodeB1.mobility.initialX = 100m
*.eNodeB1.mobility.initialY = 100m
*.eNodeB2.mobility.initialX = 600m
*.eNodeB2.mobility.initialY = 100m
*.eNodeB*.cellularNic.phy.txDirection = "ANISOTROPIC"
*.eNodeB1.cellularNic.phy.txAngle = 45deg
*.eNodeB2.cellularNic.phy.txAngle = 135deg
*.ue*.mobility.constraintAreaMaxX = 1000m
*.ue*.mobility.constraintAreaMaxY = 1000m
*.ue*.mobility.constraintAreaMinX = 0m
*.ue*.mobility.constraintAreaMinY = 0m
*.ue*.mobility.initFromDisplayString = false
*.ue1*.mobility.initialX = uniform(100m,250m)
*.ue1*.mobility.initialY = uniform(100m,250m)
*.ue2*.mobility.initialX = uniform(350m,600m)
*.ue2*.mobility.initialY = uniform(100m,250m)
#------------------------------------#

##################################################
# MultiCell Configuration			             #
# - Add DL traffic to the parent configuration   #
##################################################
[Config MultiCell-DL]
extends=MultiCell

#============= Application Setup =============
*.ue*.app[*].typename = "VoIPReceiver"
*.server.app[*].typename = "VoIPSender"
*.server.app[0].destAddress = "ue11"
*.server.app[1].destAddress = "ue12"
*.server.app[2].destAddress = "ue21"
*.server.app[3].destAddress = "ue22"
*.server.app[*].localPort = 3088+ancestorIndex(0)
*.server.app[*].startTime = uniform(0s,0.02s)
#------------------------------------#
