<?xml version="1.0" encoding="UTF-8"?>

<!-- generated on 2023-10-23 17:11:43 by Eclipse SUMO polyconvert Version 1.12.0
<configuration xmlns:xsi="http://www.w3.org/2001/XMLSchema-instance" xsi:noNamespaceSchemaLocation="http://sumo.dlr.de/xsd/polyconvertConfiguration.xsd">

    <input>
        <net-file value="paris.net.xml"/>
        <osm-files value="paris.osm"/>
        <type-file value="typemap.xml"/>
    </input>

    <output>
        <output-file value="paris.poly.xml"/>
    </output>

    <processing>
        <poi-layer-offset value="5"/>
    </processing>

    <report>
        <xml-validation value="never"/>
    </report>

</configuration>
-->

<additional xmlns:xsi="http://www.w3.org/2001/XMLSchema-instance" xsi:noNamespaceSchemaLocation="http://sumo.dlr.de/xsd/additional_file.xsd">
    <location netOffset="-447464.79,-5412672.24" convBoundary="-536.76,-1094.59,5619.37,2094.55" origBoundary="2.276264,48.855391,2.360417,48.883898" projParameter="+proj=utm +zone=31 +ellps=WGS84 +datum=WGS84 +units=m +no_defs"/>

    <poly id="1054279372" type="unknown" color="51,128,255" fill="0" layer="-1.00" shape="643.364477,1117.740669 691.233870,1093.949494 687.629018,1086.390006 639.564699,1110.516539"/>
    <poly id="1068916923" type="building" color="255,230,230" fill="1" layer="-1.00" shape="891.273208,1123.099182 892.114002,1125.203650 892.909820,1125.618731 893.554357,1125.534943 894.004440,1125.041622 894.167941,1124.484252 894.105884,1124.117961 893.106143,1122.270659 892.649677,1122.074778 892.114407,1122.079734 891.690153,1122.194834 891.297391,1122.543102 891.273208,1123.099182"/>
    <poly id="1076441862" type="unknown" color="51,128,255" fill="0" layer="-1.00" shape="1297.487354,1284.852813 1299.876894,1286.342786"/>
    <poly id="1076441863" type="building" color="255,230,230" fill="1" layer="-1.00" shape="1297.487354,1284.852813 1294.928150,1283.253228 1296.510933,1280.737335 1299.070138,1282.336920 1298.759345,1282.828928 1297.487354,1284.852813"/>
    <poly id="1076441864" type="unknown" color="51,128,255" fill="0" layer="-1.00" shape="1298.677201,1284.263791 1300.483918,1285.370020 1301.163550,1284.318768 1298.759345,1282.828928"/>
    <poly id="108200345" type="building" color="255,230,230" fill="1" layer="-1.00" shape="994.045616,970.644333 994.316064,971.342212 994.424949,972.808666 994.315023,973.610114 994.066084,974.446198 993.791860,974.926769 993.065476,975.678329 993.491540,978.931707 1002.525295,980.426860 1002.832597,987.494508 1002.635745,987.618615 1002.623134,987.841074 1002.484122,987.875709 987.333036,985.436552 978.872465,984.069531 978.546078,978.113772 977.547008,970.785709 977.413104,969.786406 977.210842,968.532042 976.493209,965.470351 976.918746,964.699336 978.247436,964.053378 979.868200,963.271314 985.124611,960.721376 998.375291,954.306628 998.521329,954.238576 998.559636,954.416096 999.806017,959.940904 1000.122578,961.661132 991.777280,965.629242 992.136631,968.805416 992.718789,969.111316 993.332023,969.605919 993.732508,970.091371 994.045616,970.644333"/>
    <poly id="108200346" type="building" color="255,230,230" fill="1" layer="-1.00" shape="967.222272,890.737858 966.353578,891.168340 954.782841,896.867246 944.978739,901.693817 944.297955,901.033087 944.340923,900.921518 941.423229,897.857949 941.269960,897.937186 940.618610,897.287302 940.698139,897.164278 936.161400,892.692697 936.044693,892.760480 935.393752,892.155060 932.285396,889.093259 932.190481,889.138606 931.412826,888.312017 933.936103,883.619482 943.048755,866.670512 947.231614,870.144831 951.890449,874.337363 953.629283,876.011084 955.258021,877.674706 960.773477,883.304549 963.826139,886.689277 967.222272,890.737858"/>
    <poly id="108200347" type="building" color="255,230,230" fill="1" layer="-1.00" shape="939.754284,1119.348664 935.660586,1122.321458 932.172195,1124.932907 928.891615,1127.019931 923.480654,1116.019583 918.204230,1105.295923 922.450474,1102.166065 927.757702,1097.992499 932.377636,1094.036523 936.595934,1090.262140 940.905447,1086.042233 948.057029,1078.305263 952.946975,1081.339476 968.568018,1091.011437 964.143293,1096.255164 959.809272,1100.997784 953.351113,1095.699060 951.397241,1096.139582 935.827115,1110.202254 935.118375,1112.065371 939.754284,1119.348664"/>
    <poly id="108200348" type="building" color="255,230,230" fill="1" layer="-1.00" shape="751.278695,890.292861 741.970868,879.840254 750.824073,872.131701 744.520691,864.597233 745.241582,864.045800 745.316252,864.189629 755.531322,857.035412 755.456342,856.858234 756.404655,856.315808 756.822930,857.134592 756.632896,857.203059 757.051583,858.066308 757.241308,857.964492 757.615998,858.828150 757.462628,858.896276 758.680890,861.364085 758.834259,861.295959 759.252637,862.125859 759.062603,862.194326 759.436983,863.024635 759.627017,862.956168 760.008626,863.775293 759.855256,863.843419 761.642057,867.517718 763.234487,870.793605 763.387547,870.692130 763.805820,871.510914 763.652863,871.623505 764.034471,872.442630 764.224505,872.374164 764.642881,873.204065 764.452847,873.272531 765.664182,875.784875 765.854216,875.716408 766.235824,876.535533 766.082454,876.603659 766.464165,877.433901 766.617225,877.332426 767.035497,878.151211 766.875207,878.263870 762.138094,881.453987 758.831710,883.930447 751.278695,890.292861"/>
    <poly id="108200349" type="building" color="255,230,230" fill="1" layer="-1.00" shape="987.475989,1060.409084 975.240068,1052.818026 966.950063,1047.680743 968.636216,1043.662989 972.177865,1034.113989 974.898990,1027.029461 984.387602,1028.553730 995.939851,1030.403575 997.539984,1032.945726 995.492301,1039.901731 984.145897,1038.105570 980.428314,1048.456621 990.126941,1054.459157 987.475989,1060.409084"/>
    <poly id="108200350" type="building" color="255,230,230" fill="1" layer="-1.00" shape="892.186941,864.606521 886.602707,862.646031 879.843777,860.540786 873.979114,859.183230 873.773383,859.140667 873.845395,858.206162 874.036048,858.204396 874.032901,856.281163 874.223863,856.312746 874.450013,853.809299 874.266280,853.766533 874.375369,852.876153 874.566022,852.874387 874.682134,851.950590 874.491481,851.952356 874.570826,851.017783 874.754455,851.049434 875.050639,848.189590 875.596001,842.937259 875.405347,842.939025 875.477669,842.037868 875.668425,842.047218 875.747771,841.112645 875.556808,841.081063 875.665794,840.179567 875.856551,840.188917 876.089932,837.674286 875.935633,837.642364 876.007646,836.707859 876.198712,836.750558 876.277131,835.715939 876.122832,835.684017 876.238842,834.749105 886.082644,837.370517 883.111139,845.924865 883.910164,847.473862 890.440452,849.436707 891.959402,848.744498 894.856459,840.068555 903.768328,843.421240 892.186941,864.606521"/>
    <poly id="108200352" type="building" color="255,230,230" fill="1" layer="-1.00" shape="818.485843,857.485206 815.256914,858.037652 809.029468,859.473926 805.269679,860.509337 801.737209,861.542642 799.282560,862.554834 799.158418,862.611572 798.776711,861.781328 798.929772,861.679854 798.510782,860.783254 798.357412,860.851379 797.939144,860.032592 798.092514,859.964467 796.918473,857.518473 796.765412,857.619947 796.347040,856.790044 796.537075,856.721578 796.081214,855.803086 795.891179,855.871552 795.509781,855.074657 795.662842,854.973183 794.429208,852.427689 792.283333,847.989630 792.093608,848.091444 791.719335,847.272249 791.864960,847.159727 791.409407,846.274583 791.263369,846.342641 790.881660,845.512398 791.035031,845.444272 789.854063,843.042813 789.700692,843.110939 789.282319,842.281036 789.435689,842.212910 789.016387,841.282962 788.833685,841.351360 788.452078,840.532233 801.432920,836.643111 803.412651,845.307220 805.385996,846.167170 816.133383,844.210942 818.485843,857.485206"/>
    <poly id="108200353" type="building" color="255,230,230" fill="1" layer="-1.00" shape="818.485843,857.485206 816.133383,844.210942 826.382660,842.314938 828.056641,840.943130 827.028362,832.070083 833.938399,831.483520 840.624004,831.210326 840.507588,832.100775 840.353598,832.102202 840.356757,834.025435 840.165794,833.993853 839.897310,836.675568 840.088273,836.707149 840.016266,837.641655 839.825200,837.598957 839.709815,838.600568 839.900778,838.632149 839.821129,839.533374 839.637396,839.490608 839.027909,845.732962 838.873472,847.268556 839.027771,847.300478 838.948122,848.201703 838.801363,848.191946 838.685668,849.160208 838.839967,849.192129 838.796983,850.093014 838.606329,850.094781 838.308516,852.776768 838.491837,852.775069 838.419418,853.665110 838.265429,853.666537 838.150353,854.701496 838.304343,854.700069 838.232233,855.623458 838.085577,855.624817 834.660531,855.589862 828.056956,856.006826 823.954698,856.489543 818.485843,857.485206"/>
    <poly id="108200354" type="building" color="255,230,230" fill="1" layer="-1.00" shape="751.278695,890.292861 749.264959,892.190352 741.709688,899.886855 737.567381,904.739039 736.807565,904.256942 736.923340,904.089110 736.126860,903.607354 736.011084,903.775186 735.250957,903.259741 735.367043,903.125257 733.013644,901.612951 732.897869,901.780783 732.138051,901.298687 732.217163,901.131195 731.457345,900.649099 731.341570,900.816931 730.544779,900.301827 730.660554,900.133995 728.351769,898.687980 724.125104,896.036897 724.016352,896.171313 723.138589,895.623611 723.254364,895.455778 722.568493,895.039699 722.459740,895.174115 721.699921,894.692020 721.772010,894.557945 719.418604,893.045645 719.302828,893.213477 718.543009,892.731383 718.695758,892.596558 717.861990,892.048448 717.746215,892.216281 716.986395,891.734186 717.594809,890.916984 717.749727,891.015598 725.833251,881.768875 725.685562,881.659076 726.404590,880.907549 733.692845,887.888110 741.970868,879.840254 751.278695,890.292861"/>
    <poly id="1097481000" type="unknown" color="51,128,255" fill="1" layer="-1.00" shape="390.807815,1253.768842 384.094951,1233.820757 420.062901,1218.098397 431.881609,1233.574195 431.652707,1236.544611 430.203569,1247.830931 427.530622,1250.568488 414.184128,1259.142238 409.928012,1259.604469 394.673373,1257.023374 390.807815,1253.768842"/>
    <poly id="112237139" type="amenity" color="237,199,199" fill="1" layer="-1.00" shape="219.860497,417.015153 215.761993,416.364330 212.845939,415.891410 212.804441,416.158611 212.121392,416.053846 212.162890,415.786646 208.710767,415.240936 208.669164,415.497021 208.008219,415.403166 208.042384,415.136035 204.737136,414.611184 204.702347,414.811619 203.982525,414.696083 204.009982,414.495717 200.844277,413.991794 200.809800,414.225578 200.104750,414.121021 200.146456,413.876053 196.870645,413.362048 196.843085,413.551298 196.160035,413.446535 196.194824,413.246100 193.021785,412.742250 192.986995,412.942685 192.267278,412.838267 192.301963,412.626716 189.011484,412.112854 188.984028,412.313220 188.278977,412.208664 188.306329,411.997182 185.045183,411.483047 185.017623,411.672297 184.363906,411.567260 184.398799,411.377941 181.056776,410.842333 181.029007,411.009350 180.478167,410.925583 180.505935,410.758566 177.274121,410.244159 177.253582,410.399992 176.474988,410.273894 176.495527,410.118062 173.102168,409.582940 173.074400,409.749957 172.508892,409.666328 172.605717,409.042860 172.767260,409.063578 173.259968,406.079561 173.061653,406.048071 173.151457,405.458020 173.357106,405.489441 174.002489,401.581268 173.774840,401.550054 173.878581,400.882052 174.113564,400.913198 174.578296,398.073966 174.409314,398.042201 174.506452,397.452081 174.675329,397.472730 175.133564,394.722497 174.920581,394.691144 175.017510,394.078792 175.230493,394.110144 175.667667,391.460163 175.491455,391.439583 175.587967,390.782766 175.771616,390.814393 176.430836,386.817155 176.276625,386.796368 176.359827,386.284199 176.514038,386.304985 176.958546,383.654935 176.782230,383.623239 176.878847,382.977538 177.488462,383.071870 177.461215,383.294469 180.780942,383.796933 180.808711,383.629916 181.513765,383.734470 181.493330,383.901419 184.754388,384.404436 184.782053,384.226303 185.575213,384.341148 185.547548,384.519281 188.624957,384.990673 188.652413,384.790307 189.467677,384.916062 189.440117,385.105312 192.708507,385.608266 192.729047,385.452433 193.441434,385.556920 193.413561,385.712821 196.659846,386.204867 196.680595,386.071267 197.385648,386.175823 197.364900,386.309423 200.743394,386.822466 200.763935,386.666633 201.292777,386.750609 201.264903,386.906510 204.650731,387.419486 204.678500,387.252468 205.420325,387.367797 205.392556,387.534815 208.624067,388.015889 208.644712,387.871173 209.004572,387.923383 208.984032,388.079216 224.936349,390.497658 224.473675,393.559208 228.013811,394.104102 228.048498,393.892552 228.525901,393.965895 228.146015,396.470812 230.863449,396.878900 231.389855,397.485406 231.086988,399.600501 231.542286,399.662935 231.514724,399.852185 233.666441,400.154407 235.033575,402.820818 233.972428,409.323172 231.325304,410.937742 230.888106,413.587719 231.064420,413.619418 230.995464,414.086984 230.811920,414.066470 230.111271,418.342019 230.214147,418.363289 230.138379,418.886505 229.594873,418.802664 229.636685,418.568812 224.906468,417.812734 223.136407,417.540288 219.860497,417.015153"/>
    <poly id="112237139#1" type="building" color="255,230,230" fill="1" layer="-1.00" shape="219.860497,417.015153 215.761993,416.364330 212.845939,415.891410 212.804441,416.158611 212.121392,416.053846 212.162890,415.786646 208.710767,415.240936 208.669164,415.497021 208.008219,415.403166 208.042384,415.136035 204.737136,414.611184 204.702347,414.811619 203.982525,414.696083 204.009982,414.495717 200.844277,413.991794 200.809800,414.225578 200.104750,414.121021 200.146456,413.876053 196.870645,413.362048 196.843085,413.551298 196.160035,413.446535 196.194824,413.246100 193.021785,412.742250 192.986995,412.942685 192.267278,412.838267 192.301963,412.626716 189.011484,412.112854 188.984028,412.313220 188.278977,412.208664 188.306329,411.997182 185.045183,411.483047 185.017623,411.672297 184.363906,411.567260 184.398799,411.377941 181.056776,410.842333 181.029007,411.009350 180.478167,410.925583 180.505935,410.758566 177.274121,410.244159 177.253582,410.399992 176.474988,410.273894 176.495527,410.118062 173.102168,409.582940 173.074400,409.749957 172.508892,409.666328 172.605717,409.042860 172.767260,409.063578 173.259968,406.079561 173.061653,406.048071 173.151457,405.458020 173.357106,405.489441 174.002489,401.581268 173.774840,401.550054 173.878581,400.882052 174.113564,400.913198 174.578296,398.073966 174.409314,398.042201 174.506452,397.452081 174.675329,397.472730 175.133564,394.722497 174.920581,394.691144 175.017510,394.078792 175.230493,394.110144 175.667667,391.460163 175.491455,391.439583 175.587967,390.782766 175.771616,390.814393 176.430836,386.817155 176.276625,386.796368 176.359827,386.284199 176.514038,386.304985 176.958546,383.654935 176.782230,383.623239 176.878847,382.977538 177.488462,383.071870 177.461215,383.294469 180.780942,383.796933 180.808711,383.629916 181.513765,383.734470 181.493330,383.901419 184.754388,384.404436 184.782053,384.226303 185.575213,384.341148 185.547548,384.519281 188.624957,384.990673 188.652413,384.790307 189.467677,384.916062 189.440117,385.105312 192.708507,385.608266 192.729047,385.452433 193.441434,385.556920 193.413561,385.712821 196.659846,386.204867 196.680595,386.071267 197.385648,386.175823 197.364900,386.309423 200.743394,386.822466 200.763935,386.666633 201.292777,386.750609 201.264903,386.906510 204.650731,387.419486 204.678500,387.252468 205.420325,387.367797 205.392556,387.534815 208.624067,388.015889 208.644712,387.871173 209.004572,387.923383 208.984032,388.079216 224.936349,390.497658 224.473675,393.559208 228.013811,394.104102 228.048498,393.892552 228.525901,393.965895 228.146015,396.470812 230.863449,396.878900 231.389855,397.485406 231.086988,399.600501 231.542286,399.662935 231.514724,399.852185 233.666441,400.154407 235.033575,402.820818 233.972428,409.323172 231.325304,410.937742 230.888106,413.587719 231.064420,413.619418 230.995464,414.086984 230.811920,414.066470 230.111271,418.342019 230.214147,418.363289 230.138379,418.886505 229.594873,418.802664 229.636685,418.568812 224.906468,417.812734 223.136407,417.540288 219.860497,417.015153"/>
    <poly id="1138640521" type="landuse" color="194,194,130" fill="1" layer="-3.00" shape="1339.389879,982.371633 1340.678230,973.332716 1342.903190,973.656923 1341.614733,982.684724 1339.389879,982.371633"/>
    <poly id="1138640522" type="landuse" color="194,194,130" fill="1" layer="-3.00" shape="1313.127933,984.602727 1311.684849,985.572052 1309.466353,982.757565 1310.150415,982.184310 1310.404162,980.269837 1312.277358,980.619497 1311.857409,982.802307 1313.127933,984.602727"/>
    <poly id="1138640523" type="landuse" color="194,194,130" fill="1" layer="-3.00" shape="1322.499395,990.942354 1322.027911,993.103402 1316.636772,992.174604 1314.002446,988.796962 1315.561422,987.670934 1317.924219,990.228404 1322.499395,990.942354"/>
    <poly id="1138640524" type="landuse" color="194,194,130" fill="1" layer="-3.00" shape="1333.827798,989.982326 1335.002377,991.716928 1330.746141,994.590866 1325.723474,993.858784 1326.221840,991.430678 1330.701894,992.167742 1333.827798,989.982326"/>
    <poly id="1138640525" type="landuse" color="194,194,130" fill="1" layer="-3.00" shape="1338.990693,984.420845 1341.327169,984.910785 1340.712901,987.495592 1337.005280,990.219966 1335.852291,988.440696 1338.737140,986.357549 1338.990693,984.420845"/>
    <poly id="1138640526" type="landuse" color="194,194,130" fill="1" layer="-3.00" shape="1311.487749,948.142560 1310.563950,948.962593 1310.688011,949.695183 1317.246964,957.205696 1318.240347,957.574556 1320.863610,957.350358 1322.938318,955.685976 1324.255634,954.595520 1325.557280,954.194470 1326.755758,953.738782 1327.437172,952.876508 1327.677910,951.940461 1326.707427,950.871012 1323.154918,949.725217 1318.125472,948.259475 1314.608108,947.747038 1312.591617,947.765557 1311.487749,948.142560"/>
    <poly id="1138640527" type="landuse" color="194,194,130" fill="1" layer="-3.00" shape="1311.522486,957.513963 1313.329251,956.218902 1316.191212,959.627804 1314.652156,968.513390 1312.456523,968.188925 1313.910766,960.449179 1311.522486,957.513963"/>
    <poly id="1138640528" type="landuse" color="194,194,130" fill="1" layer="-3.00" shape="1305.726843,971.630336 1307.651166,971.957291 1310.984269,976.362404 1310.780318,978.109663 1312.798637,978.291234 1314.201548,970.551959 1305.955426,969.371464 1305.726843,971.630336"/>
    <poly id="1138640529" type="landuse" color="194,194,130" fill="1" layer="-3.00" shape="1299.391300,966.885944 1300.682707,968.563881 1303.540731,969.149068 1303.171093,971.220245 1300.532539,970.577457 1300.242398,970.924753 1297.804522,968.178989 1299.391300,966.885944"/>
    <poly id="1138640530" type="landuse" color="194,194,130" fill="1" layer="-3.00" shape="1311.912373,954.453177 1307.927549,949.353672 1292.265431,961.526262 1296.235392,966.603658 1298.186762,965.084921 1295.648860,961.828690 1307.612216,952.547179 1310.164882,955.814397 1311.912373,954.453177"/>
    <poly id="1138640531" type="landuse" color="194,194,130" fill="1" layer="-3.00" shape="1325.213826,962.313112 1325.756396,959.906835 1326.415505,959.011414 1327.488510,958.467941 1328.616620,958.335296 1330.025618,958.444648 1331.401524,958.943402 1332.244899,959.747208 1332.550438,960.278025 1332.628051,960.744231 1332.351496,963.370407 1325.213826,962.313112"/>
    <poly id="1138640532" type="landuse" color="194,194,130" fill="1" layer="-3.00" shape="1335.422808,965.621218 1332.703930,982.588650 1329.167308,985.567153 1321.338968,984.360565 1318.890084,980.414245 1321.294535,963.549747 1335.422808,965.621218"/>
    <poly id="1138640533" type="landuse" color="194,194,130" fill="1" layer="-3.00" shape="1337.003007,966.006928 1334.184324,983.286554 1329.912514,986.861012 1320.586682,985.490301 1317.243606,980.796230 1319.912828,963.217805 1317.746320,962.870836 1314.695211,981.186498 1318.906231,987.762505 1330.309850,989.403182 1336.866558,983.895606 1339.609677,966.372098 1337.003007,966.006928"/>
    <poly id="1159357952" type="tourism" color="207,245,201" fill="0" layer="-2.00" shape="1575.132433,1219.930699 1571.506508,1214.738794 1568.400851,1210.309218 1572.749312,1207.101104 1576.885255,1211.932602"/>
    <poly id="1160459018" type="unknown" color="51,128,255" fill="0" layer="-1.00" shape="308.043959,1015.269047 305.268692,1027.446072"/>
    <poly id="117652484" type="amenity" color="237,199,199" fill="1" layer="-1.00" shape="1555.911453,397.385592 1605.938906,434.559965 1609.152501,429.883682 1605.386599,427.083206 1625.056482,400.578388 1611.696674,390.439261 1612.181012,389.667760 1595.479892,375.045636 1582.308081,390.318525 1571.244754,380.291922 1571.054999,380.393710 1563.954910,388.340598 1555.911453,397.385592"/>
    <poly id="117653617" type="amenity" color="237,199,199" fill="1" layer="-1.00" shape="1162.251765,553.690530 1154.217684,588.338728 1134.955207,573.585923 1141.140890,548.470969 1162.251765,553.690530"/>
    <poly id="1209183015" type="unknown" color="51,128,255" fill="0" layer="-1.00" shape="1293.249411,789.257651 1296.112061,791.932809 1298.954036,794.752680"/>
    <poly id="1209183016" type="unknown" color="51,128,255" fill="0" layer="-1.00" shape="1246.434226,817.391776 1246.625365,816.645172 1249.830594,815.103773 1250.222685,814.677717 1250.312186,814.043219 1249.186421,812.041374 1248.765994,811.778430 1248.180693,811.928334 1245.070688,813.457742 1244.504626,813.307308"/>
    <poly id="1209183017" type="unknown" color="51,128,255" fill="0" layer="-1.00" shape="1232.768007,823.342827 1239.965800,819.752502 1238.509514,816.897682 1231.244598,820.366337"/>
    <poly id="1209183018" type="unknown" color="51,128,255" fill="0" layer="-1.00" shape="1179.749995,857.126487 1176.329534,850.421013 1174.842970,847.466434"/>
    <poly id="1209183019" type="unknown" color="51,128,255" fill="0" layer="-1.00" shape="944.031857,1030.027488 941.006497,1035.135999 945.555586,1037.784260 948.583108,1032.909191"/>
    <poly id="1209183020" type="unknown" color="51,128,255" fill="0" layer="-1.00" shape="1026.128152,934.050554 1027.580456,935.671358 1029.400729,937.433286"/>
    <poly id="1209183021" type="unknown" color="51,128,255" fill="0" layer="-1.00" shape="1022.182955,930.095947 1020.428467,928.311179 1018.457427,926.105961 1017.901456,924.665872"/>
    <poly id="1209183022" type="unknown" color="51,128,255" fill="0" layer="-1.00" shape="1011.369266,928.039113 1014.485609,931.178704 1021.725594,938.538063 1023.663808,940.365602"/>
    <poly id="1209183023" type="unknown" color="51,128,255" fill="0" layer="-1.00" shape="1002.104300,932.482622 1006.045589,942.362675 1007.289952,946.875845"/>
    <poly id="1209183024" type="unknown" color="51,128,255" fill="0" layer="-1.00" shape="994.600267,936.231728 996.050241,939.186599 996.608886,940.915707 997.112915,942.289572"/>
    <poly id="1209183025" type="unknown" color="51,128,255" fill="0" layer="-1.00" shape="976.189552,965.940077 962.238073,972.694872 963.323888,978.298977 963.545783,984.055593 971.519629,985.126929"/>
    <poly id="121852225" type="unknown" color="51,128,255" fill="0" layer="-1.00" shape="741.640045,1116.649244 745.141770,1116.272094 763.332249,1082.774051 759.524317,1079.396443 756.702861,1076.432130 754.658647,1074.249918 739.934789,1081.479369"/>
    <poly id="121852226" type="unknown" color="51,128,255" fill="0" layer="-1.00" shape="780.854415,1140.020267 779.445379,1136.742673 797.711276,1103.455268 801.045889,1104.825092 804.099289,1105.919599 808.636325,1107.267157 812.378048,1108.255229 810.810191,1124.222847"/>
    <poly id="121852227" type="unknown" color="51,128,255" fill="0" layer="-1.00" shape="846.688905,1127.947952 848.279375,1112.035722 853.483379,1111.765152 857.629446,1111.282047 863.956783,1110.367402 868.122171,1109.595081 872.753235,1108.429350 878.903694,1106.626990 885.878021,1120.936837"/>
    <poly id="122067668" type="building" color="255,230,230" fill="1" layer="-1.00" shape="1085.879677,645.399086 1081.877143,643.990782 1083.249106,640.076021 1073.448799,636.631190 1072.010331,640.490982 1072.238785,640.611162 1071.801004,641.649092 1071.550961,641.573580 1070.696937,642.804341 1069.808659,645.091545 1073.539564,646.468995 1074.060727,644.930025 1075.235920,644.329976 1084.912883,647.920470 1085.879677,645.399086"/>
    <poly id="122067758" type="building" color="255,230,230" fill="1" layer="-1.00" shape="1154.217684,588.338728 1163.795123,590.674043 1168.330436,591.799572 1173.808998,593.416688 1175.601817,585.818314 1176.032969,584.057842 1177.152615,579.811916 1182.723280,558.771533 1172.293197,556.232811 1162.251765,553.690530 1154.217684,588.338728"/>
    <poly id="122067759" type="building" color="255,230,230" fill="1" layer="-1.00" shape="1159.624176,588.500154 1162.137854,589.099560 1162.335504,588.263957 1167.509828,589.494771 1167.326127,590.252426 1172.948795,591.590287 1174.384817,585.862872 1171.517407,585.077726 1171.001386,583.993002 1174.054613,572.303043 1164.697246,569.976801 1163.015727,576.918244 1162.611788,576.855262 1159.624176,588.500154"/>
    <poly id="122068155" type="unknown" color="51,128,255" fill="0" layer="-1.00" shape="810.289953,642.700626 805.111775,647.384486 802.164811,646.722556"/>
    <poly id="122068156" type="unknown" color="51,128,255" fill="0" layer="-1.00" shape="792.740943,654.625303 791.686869,659.582199 782.741956,667.725097 777.722330,666.571024 777.212438,665.363989"/>
    <poly id="122068945" type="natural" color="140,196,107" fill="1" layer="-4.00" shape="910.084152,548.058825 911.994272,546.040067 905.241519,539.888099 903.278214,541.707245 910.084152,548.058825"/>
    <poly id="122068947" type="natural" color="140,196,107" fill="1" layer="-4.00" shape="892.656417,553.334021 895.050854,553.723186 896.546206,538.590068 894.298145,537.376880 892.656417,553.334021"/>
    <poly id="122068948" type="natural" color="140,196,107" fill="1" layer="-4.00" shape="903.680933,538.468437 901.995673,540.218306 899.495327,537.895740 899.953184,535.067755 903.680933,538.468437"/>
    <poly id="122068952" type="natural" color="140,196,107" fill="1" layer="-4.00" shape="910.231102,554.427571 907.792181,553.193910 909.871065,551.184706 911.889392,552.933647 910.231102,554.427571"/>
    <poly id="122068954" type="natural" color="140,196,107" fill="1" layer="-4.00" shape="908.243456,549.654491 897.620997,559.624814 897.236068,559.239279 899.494910,541.019653 908.243456,549.654491"/>
    <poly id="122068956" type="natural" color="140,196,107" fill="1" layer="-4.00" shape="891.840033,563.380333 894.460354,563.611767 894.772365,560.874069 891.916557,560.555878 891.674277,562.903832 891.840033,563.380333"/>
    <poly id="122068958" type="natural" color="140,196,107" fill="1" layer="-4.00" shape="896.714964,566.325705 897.125006,566.255206 906.296447,557.988113 905.327209,555.484617 896.963988,563.121670 896.714964,566.325705"/>
    <poly id="133759080" type="building" color="255,230,230" fill="1" layer="-1.00" shape="1251.177586,774.169317 1249.878557,771.668796 1254.870978,769.088193 1256.170005,771.588716 1251.177586,774.169317"/>
    <poly id="133759080#1" type="shop" color="237,199,255" fill="1" layer="-1.00" shape="1251.177586,774.169317 1249.878557,771.668796 1254.870978,769.088193 1256.170005,771.588716 1251.177586,774.169317"/>
    <poly id="134135872" type="building" color="255,230,230" fill="1" layer="-1.00" shape="498.000660,668.206443 504.321603,672.060705 531.391913,640.769232 538.723424,635.809347 538.001542,634.682130 537.505377,634.953566 537.050285,634.124024 538.646497,633.064134 538.155050,632.268282 540.129683,630.893586 537.617203,627.281706 532.645755,630.518668 524.024549,638.736788 498.000660,668.206443"/>
    <poly id="148820762" type="landuse" color="194,194,130" fill="1" layer="-3.00" shape="1102.600524,1191.717721 1089.814593,1206.332377 1079.853215,1217.908263 1065.612222,1206.744683 1063.597219,1209.297984 1057.541079,1204.629107 1057.903592,1204.181076 1057.431038,1203.829690 1056.782357,1204.258128 1055.905347,1204.577503 1055.121400,1204.651442 1054.130299,1204.527186 1053.203138,1204.179997 1052.701562,1203.862231 1051.976217,1203.135197 1051.461459,1202.183876 1051.265584,1201.618712 1051.244454,1200.918528 1051.352228,1199.883641 1051.537944,1199.348305 1052.854840,1198.224436 1073.105606,1194.724627 1083.666677,1177.406764 1089.057115,1180.658820 1089.024247,1181.070456 1089.132746,1181.703131 1089.342257,1182.157001 1089.727951,1182.631479 1090.067497,1182.872923 1090.656036,1183.078719 1091.249960,1183.073241 1091.813118,1182.912406 1092.323617,1182.607535 1104.269133,1189.767954 1102.600524,1191.717721"/>
    <poly id="187425016" type="landuse" color="194,194,130" fill="1" layer="-3.00" shape="339.991030,342.427818 346.629916,348.858107 346.935265,350.923036 358.175098,367.026665 352.515364,371.181827 344.962980,376.855514 347.506692,380.644891 343.477607,383.495220 338.354855,387.033931 341.732083,390.548695 339.303102,392.750380 332.660722,385.942150 324.721998,393.431573 306.653046,374.868356 312.263899,369.412901 324.190537,357.806148 339.991030,342.427818"/>
    <poly id="188027851" type="building" color="255,230,230" fill="1" layer="-1.00" shape="476.768308,1252.598883 479.462792,1255.308547 484.258222,1250.561236 481.686831,1247.683664 476.768308,1252.598883"/>
    <poly id="204738178" type="unknown" color="51,128,255" fill="0" layer="-1.00" shape="962.519697,1115.758491 966.507608,1111.652748 969.899810,1108.152841"/>
    <poly id="207010793" type="building" color="255,230,230" fill="1" layer="-1.00" shape="1098.942952,1214.152449 1112.569863,1197.695734 1102.600524,1191.717721 1104.269133,1189.767954 1112.555075,1180.186410 1119.959636,1184.765095 1128.942330,1190.307549 1121.016743,1199.207602 1118.637349,1202.008819 1104.249918,1218.694874 1098.942952,1214.152449"/>