<?xml version="1.0" encoding="UTF-8"?>

<!-- generated on 2023-10-23 17:15:18 by Eclipse SUMO duarouter Version 1.12.0
<configuration xmlns:xsi="http://www.w3.org/2001/XMLSchema-instance" xsi:noNamespaceSchemaLocation="http://sumo.dlr.de/xsd/duarouterConfiguration.xsd">

    <input>
        <net-file value="paris.net.xml"/>
        <route-files value="paris.trips.xml"/>
    </input>

    <output>
        <output-file value="paris.rou.xml"/>
        <alternatives-output value="paris.rou.alt.xml"/>
    </output>

    <report>
        <ignore-errors value="true"/>
    </report>
    <route id="route0" color="1,1,0" edges="beg middle end rend"/>
</configuration>
-->

<routes xmlns:xsi="http://www.w3.org/2001/XMLSchema-instance" xsi:noNamespaceSchemaLocation="http://sumo.dlr.de/xsd/routes_file.xsd">
    <route id="0"  edges="4450686#1 4450686#3 4450686#8 4450686#12 4450686#13 193465143#0 193465143#1 193476880 314456037 190627546 184551793#0 184551793#1 365158942 193465140 24911190#0 24911190#1 314456032#0 -314456032#2"/>
      
    <route id="2"  edges="5096930#6 5096930#8 5096930#9 874587077#1 31544800#2 31544800#4 314456037 190627546 184551793#0 184551793#1 365158942 813587017#0 642898830#0 642898830#3 642901742#0 642901742#1 626668696#0 626668696#3 626668696#5 626668696#8 643131004#0 642910715#1 642910715#2 642910715#5 4941940#1"/>
      
    <route id="4"  edges="365158944#0 69325369#8 69325369#9 742319537#0 742319537#1 1104955407#0 1104955407#1 4293992#14 4293992#15 4293992#16 4293992#17 4293992#18 -643131004#1 -626668696#9 -626668696#7 -626668696#4 -626668696#2 -642901742#3 -642901742#0 -642898830#3 -642898830#2 -813587017#1 193465140 503103508 503103507 522266410 193465143#0 193465143#1 193476880 -31544800#4 -31544800#3"/>
      
    <route id="5"  edges="1089398063#4 841484527#1 626668696#5 626668696#8 4293996#1 4293996#2 4293996#3 4293996#4 4293996#7 4293996#9 4293996#10 69674564#0 69674564#1 69674564#2 69674564#5 69674564#6 24931213 62164880#0 62164880#1 62164880#2 62164880#3 62164880#4 62164880#6 4293940#1"/>
      
    <route id="6"  edges="-25035013 4444157#3 4444157#6 4444157#7 4444157#8 4444157#9 470987535#3 470987535#4 933782683#0 933782683#1 816466391#1 816466391#2 566475376#1 -874587077#1 -874587077#0"/>
      
    <route id="7"  edges="4472298#1 4472298#2 39779274#0 4444157#8 4444157#9 470987535#3 470987535#4 933782683#0 933782683#1 816466391#1 816466391#2 544549304#0 544549304#1 544549304#4 193476880 314456037 190627546 184551793#0 812822163#0 812822163#1 812822162#1 31544817#1 31544817#2 31544817#3 31544817#4 31544817#5 31544817#6 4293948#0 4293948#1"/>
      
    <route id="8"  edges="1089398063#4 841484527#1 626668696#5 626668696#8 643131004#0 -4293992#19 -4293992#17 -4293992#16 -4293992#15 -4293992#14 -4293992#13 -4293992#12 -4293992#11 -4293992#10 -4293992#9 -4293992#8 -4293992#7 24654957#1 4294005#1 4294005#3 4294005#4 4294005#7 4294005#8"/>
      
    <route id="9"  edges="62164880#9 62164880#11 4293934#0 4293934#1 4293934#2 62164880#6 4293940#1 4293940#2 4293940#3 4293940#6 4293940#7 -31544817#1 -31544817#0 -812822163#2 -812822163#0 184551793#1 365158942 193465140 503103508 24027319#0 24027319#1 566475381#1 502174127#2 502174127#3 502174127#4 161357555#1 161357555#3 161357555#4 -161357555#4 -161357555#3 -161357555#1"/>
      
    <route id="10"  edges="62164880#3 62164880#4 62164880#6 4293940#1 4293940#2 4293940#3 4293940#6 4293940#7 -31544817#1 -31544817#0 294804941#5 566475374#1 4082043#3 4082043#4 4941951#2 4941951#3"/>
      
    <route id="11"  edges="25034670#0 4444157#6 4444157#7 4444157#8 4444157#9 -630455864#4 -630455864#3 -630455864#2 -630455864#1 -630455864#0"/>
      
    <route id="12"  edges="8413410#0 8413410#2 8413410#3 630455864#2 630455864#3 630455864#4 470987535#3 470987535#4 933782683#0 933782683#1 816466391#1 816466391#2 544549304#0 544549304#1 544549304#4 193476880 314456037 190627546 184551793#0 812822163#0 812822163#1 812822162#1 31544817#1 31544817#2 31544817#3 31544817#4 24915257#0 24915257#1"/>
      
    <route id="13"  edges="-4293992#3 -4293992#2 -4293992#1 4293992#1 4293992#2 4293992#3 4293992#4 4293992#7 4293992#8 4293992#9 4293992#10 -4293992#10 -4293992#9 -4293992#8"/>
      
    <route id="14"  edges="64941056#4 747788757#1 747788757#2 569249746#2 4293936#3 62164880#11 62164880#13 62164880#14 62164880#15 62164880#16 4293944#3 -24931213 24915326#0 24915326#1 24028691#0 24028691#1 365158933 365158934#0 365158938#1 365158938#2 -4293992#4 -4293992#3 -4293992#2 -4293992#1 4294010#0"/>
      
    <route id="16"  edges="4293944#3 -31544817#12 -31544817#11 -31544817#10 -31544817#9 -31544817#6 -31544817#5 -31544817#4 -31544817#3 -31544817#2 -31544817#1 -31544817#0 -812822163#2 -812822163#0 184551793#1 365158942 193465140 503103508 503103507 522266410 193465143#0 193465143#1 193476880 -31544800#4 -31544800#3 -874587077#1 1185908536#2 1185908536#4 1185908536#6 26589107#1 8413422#1"/>
      
    <route id="17"  edges="314456033#4 -314456033#4 -314456033#3 4941951#0 4941951#1 4941951#2 4941951#3 566475371#1 566475371#2 626668696#5 626668696#8 643131004#0 -4293992#19 -4293992#17 4293992#17 4293992#18"/>
      
    <route id="18"  edges="642910715#5 -642910715#5 -642910715#4 -642910715#1 -643131004#1 -626668696#9 -626668696#7 -626668696#4 -626668696#2 -642901742#3 -642901742#0 70187668#1 70187668#2 314456040#1 503103509#0 503103509#1 41872851#1 4444151#0 4444151#1"/>
      
    <route id="19"  edges="69325369#5 69325369#6 69325369#8 69325369#9 742319537#0 742319537#1 1104955407#0 1104955407#1 4293992#14 4293992#15 4293992#16 1089398063#0 1089398063#1 4293996#7"/>
      
    <route id="20"  edges="5096871#1 80303455#0 4039896#6 4039896#7 4039896#8 4039896#9 4039896#11 566475377#2 566475377#4 190627546 184551793#0 184551793#1 365158942 813587017#0 642898830#0 642898830#3 642901742#0 642901742#1 626668696#0 626668696#3 626668696#5 626668696#8 643131004#0 -4293992#19 -4293992#17 -4293992#16 -4293992#15 -4293992#14 -4293992#13 -4293992#12 -4293992#11 -4293992#10 -4293992#9 -4293992#8 -4293992#7 -365158938#2 -365158938#1"/>
      
    <route id="21"  edges="1093778943 874587077#0 874587077#1 4082012#1 566475375#2 294804941#1 812822162#1 31544817#1 31544817#2 31544817#3 31544817#4 31544817#5 31544817#6 23819963#0 23819963#1"/>
      
    <route id="22"  edges="-41872851#10 -41872851#9 -41872851#8 -41872851#6 -41872851#5 -41872851#3 -41872851#1 -4444183#2 -4444183#0 522266410 193465143#0 193465143#1 193476880 -31544800#4 -31544800#3 -874587077#1 1185908536#2 1185908536#4 1185908536#6"/>
      
    <route id="23"  edges="-4294010#0 4293992#1 4293992#2 4293992#3 4293992#4 4293992#7 4293992#8 4293992#9 4293992#10 4293992#11 4293992#12 4293992#13 4293992#14 4293992#15 4293992#16 4293992#17 4293992#18 -643131004#1 -626668696#9 -626668696#7 -626668696#4 -626668696#2 -642901742#3 -642901742#0 4082043#3 4082043#4 4082043#5 4082043#6 71505096#0 71505096#1 71505096#2 71505096#3 71505096#4 71505096#5 71505096#7 71505096#8 22605479#0 22605479#1"/>
      
    <route id="24"  edges="4450686#1 4450686#3 4450686#8 4450686#12 4450686#13 193465143#0 193465143#1 193476880 -31544800#4 -31544800#3 -874587077#1 1185908536#2 1185908536#4 1185908536#6 26589107#1 26589107#2 26589107#3 26589107#4"/>
      
    <route id="25"  edges="27465317#5 27465317#6 -71505096#2 -71505096#1 -71505096#0 -314456033#4 -314456033#3 -314456033#2 -314456032#2 -24911190#1 -24911190#0 503103508 503103507 522266410 193465143#0 193465143#1 -544549304#4 -544549304#3 -544549304#0 -816466391#2 -816466391#1 -933782683#1 -933782683#0"/>
      
    <route id="26"  edges="193465140 503103508 503103507 522266410 193465143#0 193465143#1 193476880 314456037 -566475377#4 -566475377#3 64941056#1 64941056#2 64941056#4 747788757#1"/>
      
    <route id="27"  edges="4472298#1 4472298#2 39779274#0 4444157#8 4444157#9 470987535#3 470987535#4 933782683#0 933782683#1 816466391#1 816466391#2 544549304#0 544549304#1 544549304#4 193476880 314456037 190627546 184551793#0 184551793#1 365158942 813587017#0 642898830#0 642898830#3 642901742#0 642901742#1 626668696#0 626668696#3 626668696#5 626668696#8 643131004#0 -4293992#19 -4293992#17 -4293992#16 -4293992#15 -4293992#14 -4293992#13 -4293992#12 -4293992#11 -4293992#10 -4293992#9 -4293992#8 -4293992#7 -4293992#4 -4293992#3 -4293992#2 -4293992#1 4294010#0"/>
      
    <route id="29"  edges="-642901742#3 -642901742#0 642901742#0 642901742#1 626668696#0 626668696#3 626668696#5 626668696#8 643131004#0 4941938#2 27465317#1"/>
      
    <route id="30"  edges="874587077#0 874587077#1 31544800#2 31544800#4 314456037 190627546 184551793#0 184551793#1 365158942 193465140 503103508 503103507 4444183#0 4444183#1 41872851#1 41872851#3 41872851#5 41872851#6 4444185#0 4444185#1"/>
      
    <route id="31"  edges="4293992#18 642910715#1 642910715#2 642910715#5 4941940#1 4941940#2 4941940#3 4941940#4 4941940#6"/>
      
    <route id="32"  edges="64941056#1 64941056#2 64941056#4 747788757#1 747788757#2 -560720450#5 -560720450#4 -560720450#3 -560720450#2 560720450#2"/>
      
    <route id="33"  edges="1093778943 874587077#0 874587077#1 31544800#2 31544800#4 314456037 190627546 -31544813#4"/>
      
    <route id="35"  edges="-933782683#0 933782683#0 933782683#1 816466391#1 816466391#2 544549304#0 544549304#1 544549304#4 193476880 314456037 190627546 184551793#0 812822163#0 812822163#1 812822162#1 31544817#1 31544817#2 31544817#3 31544817#4 24915245 79368448#0 79368448#1"/>
      
    <route id="37"  edges="4472324#0 4472324#1 470987535#3 470987535#4 933782683#0 933782683#1 816466391#1 816466391#2 566475376#1 31544800#2 31544800#4"/>
      
    <route id="39"  edges="185537045#0 -41872851#3 4082038#0 4082038#1 4082038#2 502174127#2 502174127#3 502174127#4 161357555#1 161357555#3 161357555#4"/>
      
    <route id="40"  edges="4293992#4 4293992#7 4293992#8 4293992#9 4293992#10 4293992#11 4293992#12 4293992#13 4293992#14 4293992#15 4293992#16 4293992#17 4293992#18 -643131004#1 -626668696#9 -626668696#7 -626668696#4 -626668696#2 -642901742#3 -642901742#0 -642898830#3 -642898830#2 -813587017#1 193465140 503103508 503103507 522266410 193465143#0 193465143#1 -544549304#4 -544549304#3 -544549304#0 -816466391#2 -816466391#1 -933782683#1 -933782683#0 -470987535#4 -470987535#3 -630455864#4 -630455864#3 -630455864#2 17045874#0 17045874#1"/>
      
    <route id="41"  edges="4294000#3 4294000#4 69325369#9 742319537#0 742319537#1 1104955407#0 1104955407#1 4293992#14 4293992#15 4293992#16 4293992#17 4293992#18 -643131004#1 -626668696#9 -626668696#7 -626668696#4 -626668696#2 -642901742#3 -642901742#0 4082043#3 4082043#4 4082043#5 4082043#6 71505096#0 71505096#1 71505096#2 71505096#3"/>
      
    <route id="42"  edges="34378247#1 34378247#4 34378247#6 -71505096#5 747817945#1 747817945#4 566475371#1 566475371#2 626668696#5 626668696#8 4293996#1 4293996#2 4293996#3 4293996#4 1089398063#4 40795060#1 553772533#0 553772533#1 51498241#0 51498241#1 1089398064#0"/>
      
    <route id="43"  edges="933813492#0 -502174127#4 -502174127#3 -502174127#2 -502174127#0 -648763388#2 -24027319#0 503103507 522266410 193465143#0 193465143#1 193476880 314456037 190627546 184551793#0 812822163#0 812822163#1 812822161#1 4293941#0 4293941#3 -4293939#1 4293940#1 4293940#2 4293940#3"/>
      
    <route id="44"  edges="-4293992#19 -4293992#17 -4293992#16 -4293992#15 -4293992#14 -4293992#13 -4293992#12 -4293992#11 -4293992#10 -4293992#9 -4293992#8 -4293992#7 -365158938#2"/>
      
    <route id="46"  edges="566475381#1 -502174127#0 -648763388#2 -24027319#0 503103507 522266410 193465143#0 193465143#1 193476880 314456037 190627546 184551793#0 184551793#1 24931206#0 24931206#1 553772533#0 553772533#1 51498241#0 51498241#1 365158935#0 365158935#1"/>
      
    <route id="47"  edges="-4039896#2 4039896#2 4039896#3 4039896#6 4039896#7 4039896#8 4039896#9 4039896#11 566475377#2 566475377#4 190627546 184551793#0 184551793#1 365158942 813587017#0 642898830#0 642898830#3 4082043#3 4082043#4 4941951#2 4941951#3 4941951#6 4941951#7 27465317#2"/>
      
    <route id="48"  edges="933782684#1 17045818#1 17045774#1 17045774#2 27245432 816466391#2 544549304#0 544549304#1 544549304#4 193476880 314456037 190627546 184551793#0 812822163#0 812822163#1 812822161#1 4293941#0 4293941#3 -4293939#1 4293940#1 4293943#0 4293943#1"/>
      
    <route id="49"  edges="8413422#1 8413422#3 1185908536#6 26589107#1 26589107#2 26589107#3 26589107#4 26589107#6 26589107#7 630455864#2 630455864#3 630455864#4 470987535#3 470987535#4 933782683#0 933782683#1 816466391#1 816466391#2 544549304#0 544549304#1 544549304#4 193476880 314456037 190627546 184551793#0 184551793#1 365158942 813587017#0 642898830#0 642898830#3 642901742#0 642901742#1 626668696#0 626668696#3 626668696#5 626668696#8 643131004#0 4941938#2 4941938#4 4941938#5 4941938#7 4941938#8 68995797#1"/>
      
    <route id="50"  edges="-24027327#2 -502174127#4 -502174127#3 -502174127#2 -502174127#0 -648763388#2 -24027319#0 503103507 522266410 193465143#0 193465143#1 193476880 314456037 190627546 -31544813#4 -31544813#3 -564199960#8 -564199960#7 -564199960#6 -564199960#5 -564199960#4 -564199960#3 -564199960#2 -564199960#1 5096872#3"/>
      
    <route id="52"  edges="193465140 503103508 503103507 4444183#0 4444183#1 41872851#1 41872851#3 41872851#5 41872851#6 4444185#0 4444185#1"/>
      
    <route id="53"  edges="-4444183#0 522266410 193465143#0 193465143#1 193476880 314456037 190627546 184551793#0 184551793#1 365158942 813587017#0 642898830#0 642898830#3 642901742#0 642901742#1 626668696#0 626668696#3 626668696#5 626668696#8 643131004#0 -4293992#19 -4293992#17 -4293992#16 -4293992#15 -4293992#14 -4293992#13 -4293992#12 -4293992#11 -4293992#10 -4293992#9 -4293992#8 -4293992#7 24654957#1 365158944#0"/>
      
    <route id="54"  edges="4039896#7 4039896#8 4039896#9 -4039896#9 -4039896#8 -4039896#7 -4039896#6 -4039896#3 -4039896#2 5096940#1 80300418 80300371#1 80303455#0"/>
      
    <route id="55"  edges="69674564#5 69674564#6 24931213 -31544817#12 -31544817#11 -31544817#10 -31544817#9 -31544817#6 -31544817#5 -31544817#4 -31544817#3 -31544817#2 -31544817#1 -31544817#0 -812822163#2 -812822163#0 184551793#1 365158942 193465140 503103508 503103507 522266410 193465143#0 193465143#1 -544549304#4 -544549304#3 -544549304#0 -816466391#2 -816466391#1 -933782683#1 -933782683#0 -470987535#4 -470987535#3 -630455864#4 -630455864#3 -630455864#2 17045874#0 17045874#1"/>
      
    <route id="56"  edges="4293936#0 4293936#3 62164880#11 4293934#0 4293934#1 4293934#2 62164880#6 4293940#1 4293940#2 4293940#3 4293940#6 4293940#7 -31544817#1 -31544817#0 -812822163#2 -812822163#0 184551793#1 365158942 193465140 503103508 24027319#0 24027319#1 -648763388#2"/>
      
    <route id="58"  edges="24028691#1 4293993 69609792#0 69609792#1 69609792#2 69609792#4 69609792#5 4293992#11 4293992#12 4293992#13 4293992#14 4293992#15 4293992#16 4293992#17 4293992#18 -643131004#1 -626668696#9 -626668696#7 -626668696#4 -626668696#2 -642901742#3 -642901742#0 70187668#1 70187668#2 314456040#1 503103509#0 503103509#1 41872851#1 41872851#3 41872851#5 41872851#6 4444185#0 4444185#1"/>
      
    <route id="59"  edges="4294010#0 4294010#1 69325369#0 69325369#1 69325369#4 69325369#5 69325369#6 69325369#8 69325369#9 742319537#0 742319537#1 1104955407#0 1104955407#1 4293992#14 4293992#15 4293992#16 4293992#17 4293992#18 -643131004#1 -626668696#9 -626668696#7"/>
      
    <route id="60"  edges="560720450#1 560720450#2 560720450#3 560720450#4 560720450#5 564199960#1 564199960#2 564199960#3 564199960#4 564199960#5 564199960#6 564199960#7 564199960#8 294804941#1 294804941#5 553772533#0 553772533#1 51498241#0 51498241#1 365158935#0 365158935#1 69674564#0 69674564#1 4293947#1"/>
      
    <route id="61"  edges="566475371#1 566475371#2 626668696#5 626668696#8 4293996#1 4293996#2 4293996#3 4293996#4 4293996#7 4293996#9 4293996#10 69674564#0 69674564#1 69674564#2 69674564#5 69674564#6 24931213 62164880#0 62164880#1 62164880#2 62164880#3 62164880#4 62164880#6 4293940#1 4293943#0 4293943#1"/>
      
    <route id="62"  edges="-161357555#1 -933813492#0 34378247#1 34378247#4 34378247#6 -71505096#5 747817945#1 747817945#4 566475371#1 566475371#2 -626668696#4 -626668696#2 -642901742#3 -642901742#0 -642898830#3 -642898830#2 -813587017#1 193465140 24911190#0"/>
      
    <route id="63"  edges="-24792898#1 -24792898#0 -502174127#0 -648763388#2 -24027319#0 503103507 522266410 193465143#0 193465143#1 193476880 314456037 -566475377#4 -566475377#3 64941056#1 64941056#2 64941056#4 747788756#0 747788756#1 747788756#4"/>
      
    <route id="64"  edges="70187668#2 314456033#1 4941951#0 4941951#1 4941951#2 4941951#3 566475371#1 566475371#2 -626668696#4 -626668696#2 -642901742#3 -642901742#0 642901742#0 642901742#1"/>
      
    <route id="65"  edges="24792898#1 -24792898#1 -24792898#0 -502174127#0 -648763388#2 -24027319#0 503103507 522266410 193465143#0 193465143#1 193476880 314456037 -566475377#4 -566475377#3 -4039896#11 -4039896#9 -4039896#8 -4039896#7 -4039896#6 -4039896#3 -4039896#2 -4039896#0"/>
      
    <route id="66"  edges="70187668#2 -314456032#2 -24911190#1 -24911190#0 503103508 503103507 522266410 193465143#0 193465143#1 193476880 314456037 190627546 -31544813#4 -31544813#3 -564199960#8 -564199960#7 -564199960#6 -564199960#5 -564199960#4 -564199960#3 -564199960#2 -564199960#1 -560720450#5 -560720450#4 -560720450#3 -560720450#2 79649932#1"/>
      
    <route id="67"  edges="-4293939#1 4293940#1 4293940#2 4293940#3 4293940#6 4293940#7 -31544817#1 -31544817#0 294804941#5 566475374#1 4082043#3 4082043#4 4082043#5 4082043#6 4082043#7 4082043#8"/>
      
    <route id="69"  edges="560720450#3 560720450#4 560720450#5 564199960#1 564199960#2 564199960#3 564199960#4 564199960#5 564199960#6 564199960#7 564199960#8 31544813#2 31544813#4 184551793#0 184551793#1 365158942 193465140 503103508 503103507 522266410 193465143#0 193465143#1 -544549304#4"/>
      
    <route id="70"  edges="4082041#1 502174127#4 -933813492#0 34378247#1 34378247#4 34378247#6 -71505096#5 747817945#1 747817945#4 566475371#1 566475371#2 626668696#5 626668696#8 643131004#0 -4293992#19 -4293992#17 -4293992#16 -4293992#15 -4293992#14 4293992#14"/>
      
    <route id="71"  edges="185537045#0 -41872851#3 -41872851#1 -4444183#2 -4444183#0 522266410 193465143#0 193465143#1 193476880 314456037 190627546 184551793#0 184551793#1 365158942 813587017#0 642898830#0 642898830#3 642901742#0 642901742#1 626668696#0 626668696#3 626668696#5 626668696#8 643131004#0 -4293992#19 -4293992#17 -4293992#16 -4293992#15 -4293992#14 -4293992#13 -4293992#12 -4293992#11 -4293992#10 -4293992#9 -4293992#8 -4293992#7 24654957#1 4294005#1 4294005#3 4294005#4 4294005#7 4294010#1 69325369#0 69325369#1"/>
      
    <route id="72"  edges="365158944#0 69325369#8 69325369#9 742319537#0 742319537#1 1104955407#0 1104955407#1 4293992#14 4293992#15 4293992#16 4293992#17 4293992#18 -643131004#1 -626668696#9 -626668696#7 -626668696#4 -626668696#2 -642901742#3 -642901742#0 70187668#1 70187668#2 314456040#1 566475381#1 502174127#2 502174127#3 502174127#4 -933813492#0"/>
      
    <route id="74"  edges="-874587077#0 -1093778943 1093778943 874587077#0 874587077#1 31544800#2 31544800#4 314456037 190627546 184551793#0 184551793#1 365158942 813587017#0 642898830#0 642898830#3 642901742#0 642901742#1 626668696#0 626668696#3 626668696#5 626668696#8 643131004#0 -4293992#19 -4293992#17 -4293992#16 -4293992#15 -4293992#14 -4293992#13 -4293992#12 -4293992#11 -4293992#10 -4293992#9 -4293992#8 -4293992#7 24654957#1"/>
      
    <route id="75"  edges="933782684#1 17045818#1 17045774#1 17045774#2 27245432 816466391#2 544549304#0 544549304#1 544549304#4 193476880 314456037 190627546 184551793#0 184551793#1 365158942 193465140 503103508 503103507 4444183#0 4444183#1 41872851#1 4444151#0 4444151#1 4450686#8"/>
      
    <route id="76"  edges="403892253#1 403892253#3 4450686#8 4450686#12 4450686#13 193465143#0 193465143#1 193476880 314456037 190627546 184551793#0 812822163#0 812822163#1 812822161#1 4293941#0"/>
      
    <route id="77"  edges="-502174127#2 -502174127#0 -648763388#2 -24027319#0 503103507 522266410 193465143#0 193465143#1 193476880 -31544800#4 -31544800#3 -874587077#1 1185908536#2"/>
      
    <route id="78"  edges="25034670#0 4444157#6 4444157#7 4444157#8 4444157#9 470987535#3 470987535#4 933782683#0 933782683#1 816466391#1 816466391#2 544549304#0 544549304#1 544549304#4 193476880 314456037 190627546 184551793#0 184551793#1 365158942 813587017#0 642898830#0 642898830#3 642901742#0 642901742#1 626668696#0 626668696#3 626668696#5 626668696#8 643131004#0 -4293992#19 -4293992#17 -4293992#16 -4293992#15 -4293992#14 -4293992#13 -4293992#12 -4293992#11 -4293992#10 -4293992#9 -4293992#8 -4293992#7 24654957#1 4294005#1 4294005#3 4294005#4 4294005#7 4294005#8"/>
      
    <route id="79"  edges="1104955407#1 -4293992#13 -4293992#12 4294013#0 4294013#1 34382673#1 69674564#0 69674564#1 4293947#1 23819963#5 1089398064#0 1089398064#1"/>
      
    <route id="80"  edges="-4039896#9 -4039896#8 -4039896#7 -4039896#6 4039896#6 4039896#7 4039896#8 4039896#9 5096931#0 5096931#1 5096930#8 5096930#9 1185908536#2 17045774#1 17045774#2 27245432 -816466391#1 -933782683#1 -933782683#0 -470987535#4 -470987535#3 4472298#0 4472298#1 4472298#2 39779274#0 4444157#8 4444157#9"/>
      
    <route id="82"  edges="69325369#1 69325369#4 69325369#5 69325369#6 69325369#8 69325369#9 742319537#0 742319537#1 1104955407#0 1104955407#1 4293992#14 4293992#15 4293992#16 4293992#17 4293992#18 -643131004#1 -626668696#9 -626668696#7 -626668696#4 -626668696#2 -642901742#3 -642901742#0 -642898830#3 -642898830#2 -813587017#1 193465140 503103508 503103507 522266410 193465143#0 193465143#1 193476880 314456037 -566475377#4 -566475377#3 -4039896#11 -4039896#9 -4039896#8 -4039896#7"/>
      
    <route id="83"  edges="1185908536#6 26589107#1 26589107#2 26589107#3 26589107#4 26589107#6 26589107#7 630455864#2 630455864#3 630455864#4 470987535#3 470987535#4 933782683#0 933782683#1 816466391#1 816466391#2 544549304#0 544549304#1 544549304#4 193476880 314456037 190627546 184551793#0 184551793#1 365158942 813587017#0 642898830#0 642898830#3 642901742#0 642901742#1 626668696#0 626668696#3 626668696#5 626668696#8 643131004#0 4941938#2"/>
      
    <route id="84"  edges="-933813492#0 34378247#1 -24792898#5 -24792898#3 -24792898#2 -24792898#1 -24792898#0 -502174127#0 -648763388#2 -24027319#0 503103507 522266410 193465143#0 193465143#1 193476880 314456037 190627546 -31544813#4 -31544813#3 -564199960#8 -564199960#7 -564199960#6 -564199960#5 -564199960#4 -564199960#3 -564199960#2 -564199960#1 -560720450#5 -560720450#4 -560720450#3 -560720450#2"/>
      
    <route id="86"  edges="4082041#1 -502174127#3 -502174127#2 -502174127#0 -648763388#2 -24027319#0 503103507 522266410 193465143#0 193465143#1 193476880 314456037 190627546 -31544813#4 -31544813#3 -564199960#8 -564199960#7 -564199960#6 -564199960#5 -564199960#4 -564199960#3 -564199960#2 -564199960#1 564199960#1 564199960#2 564199960#3"/>
      
    <route id="87"  edges="62164880#4 62164880#6 4293940#1 4293940#2 4293940#3 4293940#6 4293940#7 -31544817#1 -31544817#0 -812822163#2 -812822163#0"/>
      
    <route id="88"  edges="-4293992#7 -365158938#2 -365158938#1 365158938#1"/>
      
    <route id="89"  edges="365158944#0 69325369#8 69325369#9 742319537#0 742319537#1 1104955407#0 1104955407#1 4293992#14 4293992#15 4293992#16 1089398063#0 1089398063#1 1089398063#4 40795060#1"/>
      
    <route id="90"  edges="5096930#6 5096930#8 5096930#9 874587077#1 31544800#2 31544800#4 314456037 190627546 184551793#0 184551793#1 365158942 813587017#0 642898830#0 642898830#3 642901742#0 642901742#1 626668696#0 626668696#3 626668696#5 626668696#8 643131004#0 4941938#2 4941938#4 4941938#5 4941938#7 4941938#8"/>
      
    <route id="91"  edges="874587077#0 874587077#1 31544800#2 31544800#4 314456037 190627546 184551793#0 184551793#1 365158942 813587017#0 642898830#0 642898830#3 642901742#0 642901742#1 626668696#0 626668696#3 626668696#5 626668696#8 643131004#0 -4293992#19 -4293992#17 -4293992#16 -4293992#15 -4293992#14 -4293992#13 -4293992#12 -4293992#11 -4293992#10 -4293992#9"/>
      
    <route id="92"  edges="34382673#1 69674564#0 69674564#1 69674564#2 69674564#5 69674564#6 24915326#0 24915326#1"/>
      
    <route id="93"  edges="69325369#5 69325369#6 69325369#8 69325369#9 742319537#0 742319537#1 1104955407#0 1104955407#1 4293992#14 4293992#15 4293992#16 4293992#17 4293992#18 -643131004#1 -626668696#9 -626668696#7 -626668696#4 -626668696#2 -642901742#3 -642901742#0 70187668#1 70187668#2 314456040#1 566475381#1 502174127#2 502174127#3 502174127#4 161357555#1 161357555#3 161357555#4"/>
      
    <route id="94"  edges="-812822163#0 184551793#1 365158942 193465140 503103508 503103507 522266410 193465143#0 193465143#1 193476880 314456037 -566475377#4 -566475377#3 -4039896#11 4039896#11"/>
      
    <route id="95"  edges="365158944#0 69325369#8 69325369#9 742319537#0 742319537#1 1104955407#0 1104955407#1 4293992#14 4293992#15 4293992#16 4293992#17 4293992#18 -643131004#1 -626668696#9 -626668696#7 -626668696#4 -626668696#2 -642901742#3 -642901742#0 4082043#3 4082043#4 4082043#5 4082043#6 71505096#0 71505096#1 71505096#2 71505096#3 71505096#4 71505096#5 71505096#7 71505096#8 22605479#0 22605479#1"/>
      
    <route id="96"  edges="17045818#1 17045774#1 17045774#2 27245432 816466391#2 566475376#1 4082012#1 64941056#1 64941056#2 64941056#4 747788756#0 747788756#1 747788756#4 747788756#5 747745774#1"/>
      
    <route id="97"  edges="4039896#0 4039896#2 4039896#3 4039896#6 4039896#7 4039896#8 4039896#9 4039896#11 566475377#2 566475377#4 190627546 184551793#0 184551793#1 365158942 813587017#0 642898830#0 642898830#3 642901742#0 642901742#1 626668696#0 626668696#3 626668696#5 626668696#8 643131004#0 4941938#2 4941938#4 4941938#5 4941938#7 4941938#8 68995797#1"/>
      
    <route id="98"  edges="4293992#0 4293992#1 4293992#2 4293992#3 4293992#4 24654957#1 365158944#0 -365158944#0"/>
      
    <route id="99"  edges="933813492#0 -933813492#0 34378247#1 34378247#4 34378247#6 -71505096#5 747817945#1 747817945#4 566475371#1 566475371#2 626668696#5 626668696#8 643131004#0 642910715#1 642910715#2 642910715#5 642910715#7"/>
      
    <route id="100"  edges="8413422#1 8413422#3 1185908536#6 26589107#1 26589107#2 26589107#3 26589107#4 26589107#6 26589107#7 630455864#2 630455864#3 630455864#4 470987535#3 470987535#4 933782683#0 933782683#1 816466391#1 816466391#2 566475376#1 4082012#1 64941056#1 64941056#2 64941056#4 747788756#0 747788756#1"/>
      
    <route id="101"  edges="64941056#4 747788757#1 747788757#2 564199960#1 564199960#2 564199960#3 564199960#4 564199960#5 564199960#6 564199960#7 564199960#8 31544813#2 31544813#4 184551793#0 184551793#1 365158942 813587017#0 642898830#0 642898830#3 642901742#0 642901742#1 626668696#0 626668696#3 -626668696#4 -626668696#2 -642901742#3"/>
      
    <route id="102"  edges="41872851#6 -41872851#6 -41872851#5 -41872851#3 4082038#0 4082038#1 4082038#2 502174127#2 502174127#3 502174127#4 -933813492#0"/>
      
    <route id="103"  edges="34378247#4 34378247#6 -71505096#5 -71505096#4 -71505096#3 -71505096#2 -71505096#1 -71505096#0 -314456033#4 -314456033#3 -314456033#2 -314456032#2 -24911190#1 -24911190#0 503103508 503103507 522266410 193465143#0 193465143#1 193476880 314456037 -566475377#4 -566475377#3 -4039896#11 -4039896#9 -4039896#8 -4039896#7 -4039896#6 -4039896#3 -4039896#2 -4039896#0"/>
      
    <route id="104"  edges="314456037 -566475377#4 -566475377#3 -4039896#11 5096931#0 5096931#1 5096930#8 5096930#9 -874587077#0 -1093778943 1093778943 874587077#0"/>
      
    <route id="105"  edges="185537045#0 -41872851#3 -41872851#1 -4444183#2 -4444183#0 522266410 193465143#0 193465143#1 193476880 314456037 190627546 -31544813#4 -31544813#3 -564199960#8 -564199960#7 -564199960#6 -564199960#5 -564199960#4 -564199960#3 -564199960#2 -564199960#1 564199960#1 564199960#2 564199960#3"/>
      
    <route id="106"  edges="4039896#9 4039896#11 566475375#2 294804941#1 294804941#5 553772533#0 553772533#1 51498241#0 51498241#1 365158935#0 365158935#1"/>
      
    <route id="107"  edges="8413410#0 8413410#2 8413410#3 630455864#2 630455864#3 630455864#4 470987535#3 470987535#4 8413426 933782684#0 933782684#1"/>
      
    <route id="108"  edges="4293992#16 -4293992#16 -4293992#15 -4293992#14 -4293992#13 -4293992#12 4294013#0 4294013#1 34382673#1 69674564#0 69674564#1 69674564#2 69674564#5 69674564#6 24931213 62164880#0 62164880#1 62164880#2 62164880#3 62164880#4 62164880#6 4293939#1 255477765#0 5096872#3 5096872#6 5096872#7 5096872#11"/>
      
    <route id="109"  edges="-626668696#7 626668696#5 626668696#8 4293996#1 4293996#2 4293996#3 4293996#4 4293996#7 4293996#9 4293996#10 69674564#0 69674564#1 69674564#2 69674564#5 69674564#6 24931213 62164880#0 62164880#1 62164880#2 62164880#3 62164880#4 62164880#6 62164880#9 62164880#11 23820042#1"/>
      
    <route id="110"  edges="8413422#1 8413422#3 1185908536#6 26589107#1 26589107#2 26589107#3 26589107#4 26589107#6 26589107#7 630455864#2 630455864#3 630455864#4 470987535#3 470987535#4 933782683#0 933782683#1 816466391#1 816466391#2 544549304#0 544549304#1 544549304#4 193476880 314456037 190627546 184551793#0 184551793#1 365158942 813587017#0 642898830#0 642898830#3 642901742#0 642901742#1 626668696#0 626668696#3 626668696#5 626668696#8 643131004#0 642910715#1 642910715#2 642910715#5 642910715#7 642910715#8 4294000#1 4294000#2 4294000#3"/>
      
    <route id="111"  edges="4293948#1 62164880#6 4293940#1 4293940#2 4293940#3 4293940#6 4293940#7 -31544817#1 -31544817#0 -812822163#2 -812822163#0 184551793#1 365158942 193465140 503103508 503103507 522266410 193465143#0 193465143#1 193476880 314456037 -566475377#4 -566475377#3 -4039896#11 5096931#0 5096931#1"/>
      
    <route id="112"  edges="-365158944#5 -365158944#4 -365158944#3 -365158944#0 4294005#1 4294005#3 4294005#4 4294005#7"/>
      