[General]
sim-time-limit=5s
warmup-period=0s
repeat = 3
**.routingRecorder.enabled = false

############### Statistics ##################
output-scalar-file = ${resultdir}/${configname}/${repetition}.sca
output-vector-file = ${resultdir}/${configname}/${repetition}.vec
seed-set = ${repetition}
**.vector-recording = true

################ Mobility parameters #####################
**.mobility.constraintAreaMinZ = 0m
**.mobility.constraintAreaMaxZ = 0m

############### AMC MODULE PARAMETERS ###############
**.numBands = 50

############### IPv4 configurator config #################
*.configurator.config = xmldoc("./demo.xml")

# ----------------------------------------------------------------------------- #
# Config "SinglePair"
#
# Do NOT run this config! It serves as base configuration for "SinglePair-UDP-*" and "SinglePair-TCP-*" configurations (see below).
# It includes two UEs served by one eNodeB. UEs are far from the eNB (~50m), but close to each other (20m)
#
[Config SinglePair]
network = simu5g.simulations.LTE.networks.SingleCell_D2D

### eNodeBs configuration ###
*.eNB.mobility.initFromDisplayString = false
*.eNB.mobility.initialX = 300m
*.eNB.mobility.initialY = 300m

### UEs configuration ###
*.numUeCell = 0
*.numUeD2DTx = 1
*.numUeD2DRx = 1

*.ue*[0].macCellId = 1
*.ue*[0].masterId = 1
*.ue*[0].mobility.initFromDisplayString = false

# Place D2D endpoints far from the eNodeB (~50m) and close to each other (20m)
*.ueD2DTx[0].mobility.initialX = 290m
*.ueD2DTx[0].mobility.initialY = 350m
*.ueD2DRx[0].mobility.initialX = 310m
*.ueD2DRx[0].mobility.initialY = 350m


# ----------------------------------------------------------------------------- #
# Config "SinglePair-UDP-Infra"
#
# In this configuration, UEs run a VoIP application (using UDP as transport layer protocol)
# They communicate using the traditional infrastructure mode (two-hop path through the eNodeB)
#
[Config SinglePair-UDP-Infra]
extends=SinglePair

### Traffic configuration ###
*.ueD2D*[0].numApps = 1

# Traffic between UEs (ueD2DTx[0] --> ueD2DRx[0])
# Transmitter
*.ueD2DTx[0].app[*].typename = "VoIPSender"
*.ueD2DTx[0].app[*].localPort = 3088+ancestorIndex(0)
*.ueD2DTx[0].app[*].startTime = uniform(0s,0.02s)
*.ueD2DTx[0].app[*].destAddress = "ueD2DRx[0]"
*.ueD2DTx[0].app[*].destPort = 1000
# Receiver
*.ueD2DRx[0].app[*].typename = "VoIPReceiver"
*.ueD2DRx[0].app[*].localPort = 1000

# Disable D2D for the eNodeB and the UEs
*.eNB*.cellularNic.typename = "LteNicEnb"
*.ueD2D*[*].cellularNic.typename = "LteNicUe"
**.amcMode = "AUTO"



# ----------------------------------------------------------------------------- #
# Config "SinglePair-UDP-D2D"
#
# In this configuration, UEs run a VoIP application (using UDP as transport layer protocol)
# They communicate using the D2D link
#
[Config SinglePair-UDP-D2D]
extends=SinglePair-UDP-Infra

# Enable D2D for the eNodeB and the UEs involved in direct communications
*.eNB*.cellularNic.typename = "LteNicEnbD2D"
*.ueD2D*[*].cellularNic.typename = "LteNicUeD2D"
**.amcMode = "D2D"

# D2D-capable flows are started in D2D mode
*.ueD2D*[*].cellularNic.d2dInitialMode = true

# --- Select CQI for D2D transmissions --- #
#
# To enable the reporting of CQIs for each D2D link, set the parameter *.eNodeB.cellularNic.phy.enableD2DCqiReporting
# To use fixed CQI, set the parameter **.usePreconfiguredTxParams and select the desired CQI using the parameter **.d2dCqi
*.eNB.cellularNic.phy.enableD2DCqiReporting = true
**.usePreconfiguredTxParams = false
**.d2dCqi = 7


# ----------------------------------------------------------------------------- #
# Config "SinglePair-TCP-Infra"
#
# In this configuration, UEs run a File Transfer application (using TCP as transport layer protocol)
# They communicate using the traditional infrastructure mode (two-hop path through the eNodeB)
#
[Config SinglePair-TCP-Infra]
extends=SinglePair

### Traffic configuration ###
*.ueD2D*[0].numApps = 1

# Traffic between UEs (ueD2DTx[0] --> ueD2DRx[0])
# Transmitter
*.ueD2DTx[0].app[*].typename = "TcpSessionApp"
*.ueD2DTx[0].app[0].connectPort = 1000
*.ueD2DTx[0].app[*].localPort = 1000
*.ueD2DTx[0].app[*].sendBytes = 1GiB
*.ueD2DTx[0].app[0].active = true
*.ueD2DTx[0].app[0].tOpen = uniform(0.010s,0.1s)
*.ueD2DTx[0].app[0].tSend = uniform(0.15s,0.5s)
*.ueD2DTx[0].app[0].connectAddress = "ueD2DRx[0]"
*.ueD2DTx[0].app[0].localAddress = "ueD2DTx[0]"

# Receiver
*.ueD2DRx[0].app[*].typename = "TcpSinkApp"
*.ueD2DRx[0].app[*].localPort = 1000

**.app[*].tClose = -1s

# Disable D2D for the eNodeB and the UEs
*.eNB*.cellularNic.typename = "LteNicEnb"
*.ueD2D*[*].cellularNic.typename = "LteNicUe"
**.amcMode = "AUTO"


# ----------------------------------------------------------------------------- #
# Config "SinglePair-TCP-D2D"
#
# In this configuration, UEs run a File Transfer application (using TCP as transport layer protocol)
# They communicate using the D2D link
#
[Config SinglePair-TCP-D2D]
extends=SinglePair-TCP-Infra

# Enable D2D for the eNodeB and the UEs involved in direct communications
*.eNB*.cellularNic.typename = "LteNicEnbD2D"
*.ueD2D*[*].cellularNic.typename = "LteNicUeD2D"
**.amcMode = "D2D"

# D2D-capable flows are started in D2D mode
*.ueD2D*[*].cellularNic.d2dInitialMode = true

# --- Select CQI for D2D transmissions --- #
#
# To enable the reporting of CQIs for each D2D link, set the parameter *.eNodeB.cellularNic.phy.enableD2DCqiReporting
# To use fixed CQI, set the parameter **.usePreconfiguredTxParams and select the desired CQI using the parameter **.d2dCqi
*.eNB.cellularNic.phy.enableD2DCqiReporting = true
**.usePreconfiguredTxParams = false
**.d2dCqi = 7




###################################################################################################################################
###################################################################################################################################
###################################################################################################################################


# ----------------------------------------------------------------------------- #
# Config "MultiplePairs"
#
# Do NOT run this config! It serves as base configuration for "MultiplePairs-D2D" and "MultiplePairs-Infra" configurations (see below).
# It includes N pairs of UEs served by one eNodeB. UEs are far from the eNB (~50m), but close to each other (20m)
#
[Config MultiplePairs]
network = simu5g.simulations.LTE.networks.SingleCell_D2D

### eNodeBs configuration ###
*.eNB.mobility.initFromDisplayString = false
*.eNB.mobility.initialX = 300m
*.eNB.mobility.initialY = 300m

### UEs configuration ###
*.numUeCell = 0
*.numUeD2DTx = ${numPairs=5,20,50}
*.numUeD2DRx = ${numPairs}

*.ue*[*].macCellId = 1
*.ue*[*].masterId = 1
*.ue*[*].mobility.initFromDisplayString = false

# Place D2D endpoints far from the eNodeB (~50m) and close to each other
*.ueD2D*[*].mobility.initialX = uniform(290m,310m)
*.ueD2D*[*].mobility.initialY = uniform(340m,350m)


# ----------------------------------------------------------------------------- #
# Config "MultiplePairs-UDP-Infra"
#
# In this configuration, UEs run a VoIP application (using UDP as transport layer protocol)
# They communicate using the traditional infrastructure mode (two-hop path through the eNodeB)
#
[Config MultiplePairs-UDP-Infra]
extends=MultiplePairs

### Traffic configuration ###
*.ueD2D*[*].numApps = 1

# Traffic between pairs of UEs (e.g. ueD2DTx[0] --> ueD2DRx[0] )
# Transmitters
*.ueD2DTx[*].app[*].typename = "VoIPSender"
*.ueD2DTx[*].app[*].localPort = 3088+ancestorIndex(0)
*.ueD2DTx[*].app[*].startTime = uniform(0s,0.02s)
*.ueD2DTx[*].app[*].destAddress = "ueD2DRx[" + string(ancestorIndex(1)) + "]"
*.ueD2DTx[*].app[*].destPort = 1000
# Receivers
*.ueD2DRx[*].app[*].typename = "VoIPReceiver"
*.ueD2DRx[*].app[*].localPort = 1000

# Disable D2D for the eNodeB and the UEs
*.eNB*.cellularNic.typename = "LteNicEnb"
*.ueD2D*[*].cellularNic.typename = "LteNicUe"
**.amcMode = "AUTO"



# ----------------------------------------------------------------------------- #
# Config "MultiplePairs-D2D"
#
# In this configuration, UEs run a VoIP application (using UDP as transport layer protocol)
# They communicate using the D2D link
#
[Config MultiplePairs-UDP-D2D]
extends=MultiplePairs-UDP-Infra

# Enable D2D for the eNodeB and the UEs involved in direct commucellularNications
*.eNB*.cellularNic.typename = "LteNicEnbD2D"
*.ueD2D*[*].cellularNic.typename = "LteNicUeD2D"
**.amcMode = "D2D"

# D2D-capable flows are started in D2D mode
*.ueD2D*[*].cellularNic.d2dInitialMode = true

# --- Select CQI for D2D transmissions --- #
#
# To enable the reporting of CQIs for each D2D link, set the parameter *.eNodeB.cellularNic.phy.enableD2DCqiReporting
# To use fixed CQI, set the parameter **.usePreconfiguredTxParams and select the desired CQI using the parameter **.d2dCqi
*.eNB.cellularNic.phy.enableD2DCqiReporting = true
**.usePreconfiguredTxParams = false
**.d2dCqi = 7

# ----------------------------------------------------------------------------- #
# Config "MultiplePairs-UDP-D2D-wReuse"
#
# In this configuration, UEs run a VoIP application (using UDP as transport layer protocol)
# They communicate using the D2D link. Frequency Reuse is enabled
#
[Config MultiplePairs-UDP-D2D-wReuse]
extends=MultiplePairs-UDP-D2D

*.eNB.cellularNic.mac.schedulingDisciplineUl = "ALLOCATOR_BESTFIT"
*.eNB.cellularNic.mac.reuseD2D = true
*.eNB.cellularNic.mac.conflictGraphUpdatePeriod = 1s
*.eNB.cellularNic.mac.conflictGraphThreshold = 90   #dBm



# ----------------------------------------------------------------------------- #
# Config "MultiplePairs-TCP-Infra"
#
# In this configuration, UEs run a File Transfer application (using TCP as transport layer protocol)
# They communicate using the traditional infrastructure mode (two-hop path through the eNodeB)
#
[Config MultiplePairs-TCP-Infra]
extends=MultiplePairs

### Traffic configuration ###
*.ueD2D*[*].numApps = 1

# Traffic between UEs (ueD2DTx[0] --> ueD2DRx[0] etc.)
# Transmitters
*.ueD2DTx[*].app[*].typename = "TcpSessionApp"
*.ueD2DTx[*].app[*].connectPort = 1000
*.ueD2DTx[*].app[*].localPort = 1000
*.ueD2DTx[*].app[*].sendBytes = 1GiB
*.ueD2DTx[*].app[*].active = true
*.ueD2DTx[*].app[*].tOpen = uniform(0.010s,0.1s)
*.ueD2DTx[*].app[*].tSend = uniform(0.15s,0.5s)
*.ueD2DTx[*].app[*].connectAddress = "ueD2DRx[" + string(ancestorIndex(1)) + "]"
*.ueD2DTx[*].app[*].localAddress = "ueD2DTx[" + string(ancestorIndex(1)) + "]"

# Receivers
*.ueD2DRx[*].app[*].typename = "TcpSinkApp"
*.ueD2DRx[*].app[*].localPort = 1000

**.app[*].tClose = -1s


# Disable D2D for the eNodeB and the UEs
*.eNB*.cellularNic.typename = "LteNicEnb"
*.ueD2D*[*].cellularNic.typename = "LteNicUe"
**.amcMode = "AUTO"



# ----------------------------------------------------------------------------- #
# Config "MultiplePairs-TCP-D2D"
#
# In this configuration, UEs run a File Transfer application (using TCP as transport layer protocol)
# They communicate using the D2D link
#
[Config MultiplePairs-TCP-D2D]
extends=MultiplePairs-TCP-Infra

# Enable D2D for the eNodeB and the UEs involved in direct communications
*.eNB*.cellularNic.typename = "LteNicEnbD2D"
*.ueD2D*[*].cellularNic.typename = "LteNicUeD2D"
**.amcMode = "D2D"

# D2D-capable flows are started in D2D mode
*.ueD2D*[*].cellularNic.d2dInitialMode = true

# --- Select CQI for D2D transmissions --- #
#
# To enable the reporting of CQIs for each D2D link, set the parameter *.eNodeB.cellularNic.phy.enableD2DCqiReporting
# To use fixed CQI, set the parameter **.usePreconfiguredTxParams and select the desired CQI using the parameter **.d2dCqi
*.eNB.cellularNic.phy.enableD2DCqiReporting = true
**.usePreconfiguredTxParams = false
**.d2dCqi = 7


# ----------------------------------------------------------------------------- #
# Config "MultiplePairs-UDP-D2D-wReuse"
#
# In this configuration, UEs run a File Transfer application (using TCP as transport layer protocol)
# They communicate using the D2D link. Frequency Reuse is enabled
#
[Config MultiplePairs-TCP-D2D-wReuse]
extends=MultiplePairs-TCP-D2D

*.eNB.cellularNic.mac.schedulingDisciplineUl = "ALLOCATOR_BESTFIT"
*.eNB.cellularNic.mac.reuseD2D = true
*.eNB.cellularNic.mac.conflictGraphUpdatePeriod = 1s
*.eNB.cellularNic.mac.conflictGraphThreshold = 90   #dBm


# ----------------------------------------------------------------------------- #
# Config "SinglePair-modeSwitching"
#
# In this configuration, two D2D UEs have a peering established. They swing back
# and forth in a straight line so as to cause periodical mode switching from D2D
# mode to Infrastructure mode and vice versa. In fact, the eNodeB periodically
# selects the mode having the best CQI
#
[Config SinglePair-modeSwitching]
network = simu5g.simulations.LTE.networks.SingleCell_D2D
sim-time-limit=50s
warmup-period=0s

################ PhyLayer parameters #####################
#
# Fading and shadowing are disabled to highlight the effects of mode switching
#
**.cellularNic.channelModel[0].fading = false
**.cellularNic.channelModel[0].shadowing = false

### eNodeBs configuration ###
*.eNB.mobility.initFromDisplayString = false
*.eNB.mobility.initialX = 300m
*.eNB.mobility.initialY = 300m

### UEs configuration ###
*.numUeCell = 0
*.numUeD2DTx = 1
*.numUeD2DRx = 1

*.ue*[0].macCellId = 1
*.ue*[0].masterId = 1
*.ue*[0].mobility.initFromDisplayString = false
*.ue*[0].mobility.typename = "LinearMobility"
*.ue*[0].mobility.speed = 10mps

# At the beginning, D2D endpoints are far from the eNodeB (~100m) and close to each other (20m)
# They swing back and forth in a straight line so as to change
# the quality of the D2D link, whereas UL link stays almost the same
*.ueD2DTx[0].mobility.initialX = 290m
*.ueD2DTx[0].mobility.initialY = 400m
*.ueD2DTx[0].mobility.constraintAreaMinX = 200m
*.ueD2DTx[0].mobility.constraintAreaMaxX = 290m
*.ueD2DTx[0].mobility.initialMovementHeading = 180deg
*.ueD2DRx[0].mobility.initialX = 310m
*.ueD2DRx[0].mobility.initialY = 400m
*.ueD2DRx[0].mobility.constraintAreaMinX = 310m
*.ueD2DRx[0].mobility.constraintAreaMaxX = 400m
*.ueD2DRx[0].mobility.initialMovementHeading = 0deg

# Enable D2D for the eNodeB and the UEs involved in direct commucnications
*.eNB*.cellularNic.typename = "LteNicEnbD2D"
*.ueD2D*[*].cellularNic.typename = "LteNicUeD2D"
**.amcMode = "D2D"

# D2D-capable flows are started in D2D mode
*.ueD2D*[*].cellularNic.d2dInitialMode = true

# --- Select CQI for D2D transmissions --- #
**.usePreconfiguredTxParams = false
*.eNB.cellularNic.phy.enableD2DCqiReporting = true

# --- Enable Mode Selection algorithm --- #
# selects the mode having the best CQI
*.eNB.cellularNic.d2dModeSelection.typename = "D2DModeSelectionBestCqi"

# ----------------------------------------------------------------------------- #
# Config "SinglePair-modeSwitching-UDP"
#
# In this configuration, UEs run a VoIP application (using UDP as transport layer protocol)
#
[Config SinglePair-modeSwitching-UDP]
extends=SinglePair-modeSwitching

### Traffic configuration ###
*.ueD2D*[0].numApps = 1

# D2D-capable flows are started in D2D mode
*.ueD2D*[*].cellularNic.d2dInitialMode = true
# Traffic between UEs (ueD2DTx[0] --> ueD2DRx[0])
# Transmitter
*.ueD2DTx[0].app[*].typename = "VoIPSender"
*.ueD2DTx[0].app[*].localPort = 3088+ancestorIndex(0)
*.ueD2DTx[0].app[*].startTime = uniform(0s,0.02s)
*.ueD2DTx[0].app[*].destAddress = "ueD2DRx[0]"
*.ueD2DTx[0].app[*].destPort = 1000
# Receiver
*.ueD2DRx[0].app[*].typename = "VoIPReceiver"
*.ueD2DRx[0].app[*].localPort = 1000



# ----------------------------------------------------------------------------- #
# Config "SinglePair-modeSwitching-TCP"
#
# In this configuration, UEs run a File Transfer application (using TCP as transport layer protocol)
#
[Config SinglePair-modeSwitching-TCP]
extends=SinglePair-modeSwitching

### Traffic configuration ###
*.ueD2D*[0].numApps = 1

# Traffic between UEs (ueD2DTx[0] --> ueD2DRx[0])
# Transmitter
*.ueD2DTx[0].app[0].typename = "TcpSessionApp"
*.ueD2DTx[0].app[0].connectPort = 1000
*.ueD2DTx[0].app[0].localPort = 1000
*.ueD2DTx[0].app[0].sendBytes = 1GiB
*.ueD2DTx[0].app[0].active = true
*.ueD2DTx[0].app[0].tOpen = uniform(0.010s,0.1s)
*.ueD2DTx[0].app[0].tSend = uniform(0.15s,0.5s)
*.ueD2DTx[0].app[0].connectAddress = "ueD2DRx[0]"
*.ueD2DTx[0].app[0].localAddress = "ueD2DTx[0]"

# Receiver
*.ueD2DRx[0].app[0].typename = "TcpSinkApp"
*.ueD2DRx[0].app[0].localPort = 1000

**.app[*].tClose = -1s



[Config SinglePair-Validation]
network = simu5g.simulations.LTE.networks.SingleCell_D2D
sim-time-limit=10s
warmup-period=1s
repeat = 10
**.vector-recording = false
output-scalar-file = ${resultdir}/${configname}/pos2=${pos2}-${repetition}.sca
output-vector-file = ${resultdir}/${configname}/pos2=${pos2}-${repetition}.vec
**.numRbDl = 25
**.numRbUl = 25
**.numBands = 25
**.ueTxPower = 26dBm

### eNodeBs configuration ###
*.eNB.mobility.initFromDisplayString = false
*.eNB.mobility.initialX = 300m
*.eNB.mobility.initialY = 300m

### UEs configuration ###
*.numUeCell = 0
*.numUeD2DTx = 1
*.numUeD2DRx = 1

*.ue*[0].macCellId = 1
*.ue*[0].masterId = 1
*.ue*[0].mobility.initFromDisplayString = false

*.ueD2DTx[0].mobility.initialX = 300m
*.ueD2DTx[0].mobility.initialY = 350m
*.ueD2DRx[0].mobility.initialX = ${pos2=310,320,330,340,350,360,370,380,390,400,410,420}m
*.ueD2DRx[0].mobility.initialY = 350m


### Traffic configuration ###
*.ueD2D*[0].numApps = 1

# Traffic between UEs (ueD2DTx[0] --> ueD2DRx[0])
# Transmitter
*.ueD2DTx[0].app[*].typename = "VoIPSender"
*.ueD2DTx[0].app[*].silences = false
*.ueD2DTx[0].app[*].packetSize = 2500B
*.ueD2DTx[0].app[*].sampling_time = 0.001s
*.ueD2DTx[0].app[*].localPort = 3088+ancestorIndex(0)
*.ueD2DTx[0].app[*].startTime = uniform(0s,0.02s)
*.ueD2DTx[0].app[*].destAddress = "ueD2DRx[0]"
*.ueD2DTx[0].app[*].destPort = 1000
# Receiver
*.ueD2DRx[0].app[*].typename = "VoIPReceiver"
*.ueD2DRx[0].app[*].localPort = 1000


# Enable D2D for the eNodeB and the UEs involved in direct communications
*.eNB*.cellularNic.typename = "LteNicEnbD2D"
*.ueD2D*[*].cellularNic.typename = "LteNicUeD2D"
**.amcMode = "D2D"

# D2D-capable flows are started in D2D mode
*.ueD2D*[*].cellularNic.d2dInitialMode = true

# --- Select CQI for D2D transmissions --- #
#
# To enable the reporting of CQIs for each D2D link, set the parameter *.eNodeB.cellularNic.phy.enableD2DCqiReporting
# To use fixed CQI, set the parameter **.usePreconfiguredTxParams and select the desired CQI using the parameter **.d2dCqi
*.eNB.cellularNic.phy.enableD2DCqiReporting = true