<routes>
  <!--Namespace(N=75, filecount=None, input='routes.txt', launch=False, output='singleIntersection.rou.xml', quarter=100)-->
  <vType id="car" accel="0.8" decel="4.5" sigma="1.0" length="4" minGap="2.5" maxSpeed="13.89" guiShape="passenger" />
  
  <route id="1" edges="1/0to1/1 1/1to1/2"/>
  <route id="2" edges="1/2to1/1 1/1to1/0"/>
  <route id="3" edges="2/1to1/1 1/1to0/1"/>
  <route id="4" edges="0/1to1/1 1/1to2/1"/>
  
  <vehicle id="0" type="car" route="2" depart="0"/>
  <vehicle id="1" type="car" route="2" depart="5"/>
  <vehicle id="2" type="car" route="2" depart="10"/>
  <vehicle id="3" type="car" route="2" depart="15"/>
    
  <vehicle id="4" type="car" route="3" depart="20"/>
  <vehicle id="5" type="car" route="3" depart="25"/>
  <vehicle id="6" type="car" route="3" depart="30"/>
  <vehicle id="7" type="car" route="3" depart="35"/>
</routes>
