[General]
scheduler-class = "inet::RealTimeScheduler"
cmdenv-express-mode = true
image-path=../../../images
output-scalar-file-append = false
sim-time-limit = 50s
network = lte.emulation.testbed.ExtClientServerExample

**.routingRecorder.enabled = false
**.networkConfiguratorModule = ""
**.fcsMode = "computed"
**.crcMode = "computed"

############### Statistics ##################
output-scalar-file = ${resultdir}/${configname}/${repetition}.sca
output-vector-file = ${resultdir}/${configname}/${repetition}.vec
seed-set = ${repetition}

################ Mobility parameters #####################
# *

**.mobility.constraintAreaMaxX = 1000m
**.mobility.constraintAreaMaxY = 1000m
**.mobility.constraintAreaMinX = 0m
**.mobility.constraintAreaMinY = 0m
**.mobility.constraintAreaMinZ = 0m
**.mobility.constraintAreaMaxZ = 0m
**.mobility.initFromDisplayString = false

############### Phy layer parameters ################
**.amcType = "NRAmc"
**.pilotMode = "ROBUST_CQI" 
**.targetBler = 0.01
**.blerShift = 5  
**.fbPeriod = 40 

############### IPv4 configurator config #################
*.configurator.config = xmldoc("./demo.xml")

############### eNodeB configuration #################
*.gnb.mobility.initialX = 450m
*.gnb.mobility.initialY = 300m

############## ue configuration ##################
# connect the ue's NIC to the corresponding serving gnb
*.ue*.macCellId = 1
*.ue*.masterId = 1
*.ue*.nrMacCellId = 1
*.ue*.nrMasterId = 1

# ue position
*.ue*.mobilityType = "StationaryMobility"
*.ue*.mobility.initialX = 450m
*.ue*.mobility.initialY = 350m

############### CA configuration ######################## 
*.carrierAggregation.numComponentCarriers = 1
*.carrierAggregation.componentCarrier[0].numerologyIndex = 0
*.carrierAggregation.componentCarrier[0].carrierFrequency = 2GHz
*.carrierAggregation.componentCarrier[0].numBands = 50

*.gnb.lteNic.numCarriers = 1
*.gnb.lteNic.channelModel[0].componentCarrierIndex = 0
*.ue.lteNic.numNRCarriers = 1
*.ue.lteNic.nrChannelModel[0].componentCarrierIndex = 0

############### PCAP recorders ###########################
*.natRouter.numPcapRecorders = 0
*.router.numPcapRecorders = 0
*.natRouter.pcapRecorder[0].pcapFile = "natrouter.pcap"
*.router.pcapRecorder[0].pcapFile = "router.pcap"



#
# This configuration uses sockets to exchange packets with the real world 
#
[Config ExtClientServer_Testbed]

############## Routing configuration ##############
# configure routing tables of each network element. Each of them must include a route to the (real) client 
*.router.ipv4.routingTable.routingFile = "routing_testbed/router.mrt"
*.natRouter.ipv4.routingTable.routingFile = "routing_testbed/natRouter.mrt"
*.upf.ipv4.routingTable.routingFile = "routing_testbed/upf.mrt"
*.gnb.ipv4.routingTable.routingFile = "routing_testbed/gnb.mrt"
*.ue.ipv4.routingTable.routingFile = "routing_testbed/ue.mrt"

############# NAT configuration #################
*.natRouter.ipv4.natTable.config = xml("<config> \
                                        <entry type='prerouting' \
                                        packetDataFilter='*Ipv4Header and destAddress=~10.0.2.1' \
                                        srcAddress='10.0.3.2' destAddress='192.168.56.2'/> \
                                        <entry type='prerouting' \
                                        packetDataFilter='*Ipv4Header and destAddress=~10.0.3.2' \
                                        srcAddress='10.0.2.1' destAddress='192.168.55.2'/> \
                                     </config>")

############## Ext Interface configuration ##############
# equip the router with an External Ethernet interface 
*.router.numEthInterfaces = 1
*.router.eth[0].typename = "ExtLowerEthernetInterface"
*.router.eth[0].device = "veth0"

*.ue.numEthInterfaces = 1
*.ue.eth[0].typename = "ExtLowerEthernetInterface"
*.ue.eth[0].device = "veth2"
*.ue.extHostAddress = "192.168.55.2"
*.ue.ipv4.forwarding = true
